data_crystal

_cell_length_a    38.12770
_cell_length_b    38.12770
_cell_length_c    38.12770
_cell_angle_alpha 109.47000
_cell_angle_beta  109.47000
_cell_angle_gamma 109.47000

_symmetry_space_group_name_Hall 'P 1'
_symmetry_space_group_name_H-M  'P 1'

loop_
_symmetry_equiv_pos_as_xyz
 'x,y,z'

loop_
_atom_site_label
_atom_site_type_symbol
_atom_site_fract_x
_atom_site_fract_y
_atom_site_fract_z
H          H       0.09570   0.79220   0.55970
H          H       0.16720   0.94450   0.61240
H          H       0.23600   0.86430   0.60760
H          H       0.14250   0.87510   0.67630
H          H       0.72960   0.36480   0.60270
H          H       0.59240   0.31290   0.53560
H          H       0.65530   0.43550   0.61720
H          H       0.66200   0.38370   0.69720
H          H       0.17000   0.45500   0.11950
H          H       0.22050   0.37110   0.08580
H          H       0.08940   0.29170   0.02180
H          H       0.17420   0.38130   0.19670
H          H       0.58990   0.79700   0.02810
H          H       0.67510   0.88700   0.20290
H          H       0.67140   0.94150   0.11010
H          H       0.74380   0.86450   0.11490
C          C       0.65370   0.79850   0.18630
C          C       0.80280   0.93480   0.18730
C          C       0.65020   0.77410   0.21000
C          C       0.85010   0.95730   0.21290
C          C       0.65680   0.65840   0.34410
C          C       0.68700   0.78220   0.24290
C          C       0.87520   0.98590   0.20520
C          C       0.61070   0.74580   0.20140
C          C       0.70010   0.68650   0.35910
C          C       0.64330   0.73000   0.25420
C          C       0.87000   0.94940   0.24390
C          C       0.68140   0.75800   0.26490
C          C       0.62290   0.65670   0.31110
C          C       0.60760   0.72080   0.22130
C          C       0.64360   0.63060   0.36000
C          C       0.91920   0.00640   0.22850
C          C       0.63330   0.68320   0.29300
C          C       0.58060   0.62960   0.29610
C          C       0.93850   0.99870   0.26110
C          C       0.63890   0.70370   0.27450
C          C       0.14440   0.10090   0.36180
C          C       0.09950   0.08650   0.33570
C          C       0.06830   0.05370   0.33590
C          C       0.02280   0.03480   0.30710
C          C       0.91410   0.97000   0.26860
C          C       0.07990   0.03760   0.36300
C          C       0.08900   0.10220   0.30710
C          C       0.98550   0.01870   0.28510
C          C       0.30190   0.44670   0.18630
C          C       0.35000   0.47390   0.21000
C          C       0.59980   0.60140   0.34410
C          C       0.37480   0.47000   0.24290
C          C       0.36970   0.50480   0.20140
C          C       0.58670   0.57310   0.35910
C          C       0.43840   0.52510   0.25420
C          C       0.42100   0.49760   0.26490
C          C       0.56850   0.60230   0.31110
C          C       0.41460   0.52780   0.22130
C          C       0.52390   0.57380   0.29300
C          C       0.48490   0.54970   0.27450
C          C       0.72770   0.94170   0.25550
C          C       0.75020   0.96730   0.30280
C          C       0.77880   0.95960   0.32790
C          C       0.74230   0.99830   0.32270
C          C       0.79930   0.98290   0.37190
C          C       0.79160   0.01550   0.39120
C          C       0.89380   0.11620   0.59710
C          C       0.87940   0.09010   0.55220
C          C       0.84660   0.09030   0.52100
C          C       0.82770   0.06150   0.47550
C          C       0.76290   0.02300   0.36680
C          C       0.83050   0.11740   0.53260
C          C       0.89510   0.06150   0.54170
C          C       0.81160   0.03950   0.43820
C          C       0.72800   0.79290   0.11840
C          C       0.75240   0.76920   0.12190
C          C       0.86810   0.63510   0.11530
C          C       0.74430   0.73630   0.08510
C          C       0.78070   0.77780   0.16140
C          C       0.84000   0.62010   0.07200
C          C       0.79660   0.72500   0.12880
C          C       0.76850   0.71430   0.09060
C          C       0.86980   0.66810   0.14920
C          C       0.80570   0.75790   0.16450
C          C       0.89590   0.61910   0.12850
C          C       0.84330   0.68620   0.13880
C          C       0.89690   0.68310   0.19150
C          C       0.82280   0.70470   0.13320
C          C       0.89590   0.58690   0.09620
C          C       0.89690   0.52490   0.03330
C          C       0.72800   0.42910   0.75460
C          C       0.75240   0.45000   0.80270
C          C       0.86810   0.57230   0.05250
C          C       0.74430   0.47870   0.82750
C          C       0.78070   0.43880   0.82240
C          C       0.84000   0.58750   0.03940
C          C       0.79660   0.48730   0.89110
C          C       0.76850   0.49730   0.87370
C          C       0.86980   0.54010   0.02120
C          C       0.80570   0.46070   0.86730
C          C       0.84330   0.52400   0.97660
C          C       0.82280   0.50910   0.93760
C          C       0.72770   0.29170   0.60550
C          C       0.75020   0.26690   0.60240
C          C       0.77880   0.27040   0.63870
C          C       0.74230   0.23910   0.56350
C          C       0.79930   0.24690   0.63590
C          C       0.79160   0.21990   0.59560
C          C       0.87940   0.14670   0.60880
C          C       0.84660   0.14510   0.57580
C          C       0.82770   0.17170   0.58570
C          C       0.76290   0.21560   0.55940
C          C       0.89510   0.17290   0.65310
C          C       0.81160   0.19290   0.59160
C          C       0.66570   0.44670   0.55010
C          C       0.66920   0.47390   0.52920
C          C       0.66260   0.60140   0.40690
C          C       0.63240   0.47000   0.50050
C          C       0.70870   0.50480   0.54040
C          C       0.61930   0.57310   0.39170
C          C       0.67620   0.52510   0.49200
C          C       0.63800   0.49760   0.48180
C          C       0.69650   0.60230   0.43910
C          C       0.71180   0.52780   0.51850
C          C       0.67580   0.63060   0.39230
C          C       0.68610   0.57380   0.45520
C          C       0.73880   0.62960   0.45430
C          C       0.68050   0.54970   0.47010
C          C       0.01750   0.79850   0.55010
C          C       0.96940   0.77410   0.52920
C          C       0.71960   0.65840   0.40690
C          C       0.94460   0.78220   0.50050
C          C       0.94970   0.74580   0.54040
C          C       0.73270   0.68650   0.39170
C          C       0.88110   0.73000   0.49200
C          C       0.89840   0.75800   0.48180
C          C       0.75090   0.65670   0.43910
C          C       0.90480   0.72080   0.51850
C          C       0.79550   0.68320   0.45520
C          C       0.83450   0.70370   0.47010
C          C       0.15280   0.93480   0.53730
C          C       0.14970   0.95730   0.51250
C          C       0.18600   0.98590   0.51600
C          C       0.11080   0.94940   0.48470
C          C       0.18320   0.00640   0.49250
C          C       0.14290   0.99870   0.46550
C          C       0.15610   0.08650   0.39230
C          C       0.12310   0.05370   0.39070
C          C       0.13300   0.03480   0.41730
C          C       0.10670   0.97000   0.46120
C          C       0.20040   0.10220   0.41850
C          C       0.13890   0.01870   0.43850
C          C       0.92440   0.11620   0.62770
C          C       0.99010   0.11740   0.69220
C          C       0.09150   0.94170   0.61930
C          C       0.06980   0.96730   0.62240
C          C       0.03700   0.95960   0.58610
C          C       0.08090   0.99830   0.66130
C          C       0.01630   0.98290   0.58890
C          C       0.02960   0.01550   0.62920
C          C       0.94320   0.09010   0.61600
C          C       0.97460   0.09030   0.64900
C          C       0.99130   0.06150   0.63910
C          C       0.06150   0.02300   0.66540
C          C       0.92510   0.06150   0.57170
C          C       0.00660   0.03950   0.63320
C          C       0.07980   0.42910   0.10640
C          C       0.05260   0.45000   0.10290
C          C       0.92510   0.57230   0.10950
C          C       0.05650   0.47870   0.13970
C          C       0.02170   0.43880   0.06340
C          C       0.95340   0.58750   0.15280
C          C       0.00150   0.48730   0.09600
C          C       0.02890   0.49730   0.13410
C          C       0.92420   0.54010   0.07560
C          C       0.99870   0.46070   0.06030
C          C       0.95270   0.52400   0.08600
C          C       0.97680   0.50910   0.09160
C          C       0.07980   0.79290   0.47020
C          C       0.05260   0.76920   0.42210
C          C       0.92510   0.63510   0.17230
C          C       0.05650   0.73630   0.39730
C          C       0.02170   0.77780   0.40240
C          C       0.95340   0.62010   0.18540
C          C       0.00150   0.72500   0.33370
C          C       0.02890   0.71430   0.35100
C          C       0.92420   0.66810   0.20360
C          C       0.99870   0.75790   0.35750
C          C       0.95270   0.68620   0.24820
C          C       0.97680   0.70470   0.28720
C          C       0.09150   0.29170   0.96930
C          C       0.06980   0.26690   0.92200
C          C       0.03700   0.27040   0.89690
C          C       0.08090   0.23910   0.90210
C          C       0.01630   0.24690   0.85290
C          C       0.02960   0.21990   0.83360
C          C       0.94320   0.14670   0.67260
C          C       0.97460   0.14510   0.70380
C          C       0.99130   0.17170   0.74930
C          C       0.06150   0.21560   0.85800
C          C       0.92510   0.17290   0.68310
C          C       0.00660   0.19290   0.78660
C          C       0.17500   0.13150   0.36180
C          C       0.23950   0.19720   0.36300
C          C       0.16660   0.29860   0.18730
C          C       0.16970   0.27690   0.21290
C          C       0.13340   0.24410   0.20520
C          C       0.20860   0.28800   0.24390
C          C       0.13620   0.22340   0.22850
C          C       0.17650   0.23670   0.26110
C          C       0.16330   0.15030   0.33570
C          C       0.19630   0.18170   0.33590
C          C       0.18640   0.19840   0.30710
C          C       0.21270   0.26860   0.26860
C          C       0.11900   0.13220   0.30710
C          C       0.18050   0.21370   0.28510
C          C       0.39500   0.61740   0.59710
C          C       0.32930   0.61620   0.53260
C          C       0.22790   0.44190   0.25550
C          C       0.24960   0.46670   0.30280
C          C       0.28240   0.46320   0.32790
C          C       0.23850   0.49450   0.32270
C          C       0.30310   0.48670   0.37190
C          C       0.28980   0.51370   0.39120
C          C       0.37620   0.58690   0.55220
C          C       0.34480   0.58850   0.52100
C          C       0.32810   0.56190   0.47550
C          C       0.25790   0.51800   0.36680
C          C       0.39430   0.56070   0.54170
C          C       0.31280   0.54070   0.43820
C          C       0.22790   0.79190   0.60550
C          C       0.24960   0.76630   0.60240
C          C       0.28240   0.77400   0.63870
C          C       0.23850   0.73530   0.56350
C          C       0.30310   0.75070   0.63590
C          C       0.28980   0.71810   0.59560
C          C       0.37620   0.64350   0.60880
C          C       0.34480   0.64330   0.57580
C          C       0.32810   0.67210   0.58570
C          C       0.25790   0.71060   0.55940
C          C       0.39430   0.67210   0.65310
C          C       0.31280   0.69410   0.59160
C          C       0.51660   0.29860   0.53730
C          C       0.46930   0.27690   0.51250
C          C       0.44420   0.24410   0.51600
C          C       0.44940   0.28800   0.48470
C          C       0.40020   0.22340   0.49250
C          C       0.38090   0.23670   0.46550
C          C       0.21990   0.15030   0.39230
C          C       0.25110   0.18170   0.39070
C          C       0.29660   0.19840   0.41730
C          C       0.40530   0.26860   0.46120
C          C       0.23040   0.13220   0.41850
C          C       0.33390   0.21370   0.43850
C          C       0.59170   0.44190   0.61930
C          C       0.56920   0.46670   0.62240
C          C       0.54060   0.46320   0.58610
C          C       0.57710   0.49450   0.66130
C          C       0.52010   0.48670   0.58890
C          C       0.52780   0.51370   0.62920
C          C       0.42560   0.61740   0.62770
C          C       0.44000   0.58690   0.61600
C          C       0.47280   0.58850   0.64900
C          C       0.49170   0.56190   0.63910
C          C       0.55650   0.51800   0.66540
C          C       0.48890   0.61620   0.69220
C          C       0.42430   0.56070   0.57170
C          C       0.50780   0.54070   0.63320
C          C       0.59170   0.79190   0.96930
C          C       0.56920   0.76630   0.92200
C          C       0.54060   0.77400   0.89690
C          C       0.57710   0.73530   0.90210
C          C       0.52010   0.75070   0.85290
C          C       0.52780   0.71810   0.83360
C          C       0.44000   0.64350   0.67260
C          C       0.47280   0.64330   0.70380
C          C       0.49170   0.67210   0.74930
C          C       0.55650   0.71060   0.85800
C          C       0.42430   0.67210   0.68310
C          C       0.50780   0.69410   0.78660
C          C       0.42350   0.14670   0.12850
C          C       0.42250   0.20870   0.19150
C          C       0.23960   0.94070   0.75460
C          C       0.26680   0.96440   0.80270
C          C       0.39430   0.09850   0.05250
C          C       0.26290   0.99730   0.82750
C          C       0.29770   0.95580   0.82240
C          C       0.36600   0.11350   0.03940
C          C       0.31800   0.00870   0.89110
C          C       0.29050   0.01930   0.87370
C          C       0.39520   0.06550   0.02120
C          C       0.32070   0.97570   0.86730
C          C       0.42350   0.11450   0.09620
C          C       0.36670   0.04740   0.97660
C          C       0.42250   0.05050   0.03330
C          C       0.34260   0.02890   0.93760
C          C       0.23960   0.30450   0.11840
C          C       0.26680   0.28360   0.12190
C          C       0.39430   0.16130   0.11530
C          C       0.26290   0.25490   0.08510
C          C       0.29770   0.29480   0.16140
C          C       0.36600   0.14610   0.07200
C          C       0.31800   0.24640   0.12880
C          C       0.29050   0.23630   0.09060
C          C       0.39520   0.19350   0.14920
C          C       0.32070   0.27290   0.16450
C          C       0.36670   0.20960   0.13880
C          C       0.34260   0.22450   0.13320
C          C       0.59140   0.30450   0.47020
C          C       0.56700   0.28360   0.42210
C          C       0.45130   0.16130   0.17230
C          C       0.57510   0.25490   0.39730
C          C       0.53870   0.29480   0.40240
C          C       0.47940   0.14610   0.18540
C          C       0.52290   0.24640   0.33370
C          C       0.55090   0.23630   0.35100
C          C       0.44960   0.19350   0.20360
C          C       0.51370   0.27290   0.35750
C          C       0.47610   0.20960   0.24820
C          C       0.49660   0.22450   0.28720
C          C       0.59140   0.94070   0.10640
C          C       0.56700   0.96440   0.10290
C          C       0.45130   0.09850   0.10950
C          C       0.57510   0.99730   0.13970
C          C       0.53870   0.95580   0.06340
C          C       0.47940   0.11350   0.15280
C          C       0.52290   0.00870   0.09600
C          C       0.55090   0.01930   0.13410
C          C       0.44960   0.06550   0.07560
C          C       0.51370   0.97570   0.06030
C          C       0.47610   0.04740   0.08600
C          C       0.49660   0.02890   0.09160
C          C       0.14440   0.60210   0.86300
C          C       0.07990   0.53640   0.86180
C          C       0.80280   0.43500   0.68750
C          C       0.85010   0.45670   0.71230
C          C       0.87520   0.48950   0.70880
C          C       0.87000   0.44560   0.74010
C          C       0.91920   0.51020   0.73230
C          C       0.93850   0.49690   0.75930
C          C       0.09950   0.58330   0.83250
C          C       0.06830   0.55190   0.83410
C          C       0.02280   0.53520   0.80750
C          C       0.91410   0.46500   0.76360
C          C       0.08900   0.60140   0.80630
C          C       0.98550   0.51990   0.78630
C          C       0.30190   0.93510   0.67470
C          C       0.35000   0.95950   0.69560
C          C       0.59980   0.07520   0.81790
C          C       0.37480   0.95140   0.72430
C          C       0.36970   0.98780   0.68440
C          C       0.58670   0.04710   0.83310
C          C       0.43840   0.00370   0.73280
C          C       0.42100   0.97560   0.74290
C          C       0.56850   0.07690   0.78570
C          C       0.41460   0.01280   0.70630
C          C       0.64360   0.10300   0.83240
C          C       0.52390   0.05040   0.76960
C          C       0.58060   0.10400   0.77050
C          C       0.48490   0.02990   0.75470
C          C       0.65370   0.28690   0.67470
C          C       0.65020   0.25970   0.69560
C          C       0.65680   0.13220   0.81790
C          C       0.68700   0.26360   0.72430
C          C       0.61070   0.22880   0.68440
C          C       0.70010   0.16050   0.83310
C          C       0.64330   0.20860   0.73280
C          C       0.68140   0.23600   0.74290
C          C       0.62290   0.13130   0.78570
C          C       0.60760   0.20580   0.70630
C          C       0.63330   0.15980   0.76960
C          C       0.63890   0.18390   0.75470
C          C       0.15280   0.43500   0.03750
C          C       0.14970   0.45670   0.01190
C          C       0.18600   0.48950   0.01960
C          C       0.11080   0.44560   0.98090
C          C       0.18320   0.51020   0.99630
C          C       0.14290   0.49690   0.96370
C          C       0.15610   0.58330   0.88910
C          C       0.12310   0.55190   0.88890
C          C       0.13300   0.53520   0.91770
C          C       0.10670   0.46500   0.95620
C          C       0.20040   0.60140   0.91770
C          C       0.13890   0.51990   0.93970
C          C       0.01750   0.28690   0.03850
C          C       0.96940   0.25970   0.01480
C          C       0.71960   0.13220   0.88070
C          C       0.94460   0.26360   0.98190
C          C       0.94970   0.22880   0.02340
C          C       0.73270   0.16050   0.86570
C          C       0.88110   0.20860   0.97060
C          C       0.89840   0.23600   0.95980
C          C       0.75090   0.13130   0.91370
C          C       0.90480   0.20580   0.00350
C          C       0.67580   0.10300   0.86470
C          C       0.79550   0.15980   0.93180
C          C       0.73880   0.10400   0.92870
C          C       0.83450   0.18390   0.95030
C          C       0.66570   0.93510   0.03850
C          C       0.66920   0.95950   0.01480
C          C       0.66260   0.07520   0.88070
C          C       0.63240   0.95140   0.98190
C          C       0.70870   0.98780   0.02340
C          C       0.61930   0.04710   0.86570
C          C       0.67620   0.00370   0.97060
C          C       0.63800   0.97560   0.95980
C          C       0.69650   0.07690   0.91370
C          C       0.71180   0.01280   0.00350
C          C       0.68610   0.05040   0.93180
C          C       0.68050   0.02990   0.95030
C          C       0.16660   0.79880   0.68750
C          C       0.16970   0.77630   0.71230
C          C       0.13340   0.74770   0.70880
C          C       0.20860   0.78420   0.74010
C          C       0.13620   0.72720   0.73230
C          C       0.17650   0.73490   0.75930
C          C       0.17500   0.63270   0.86300
C          C       0.16330   0.64710   0.83250
C          C       0.19630   0.67990   0.83410
C          C       0.18640   0.69880   0.80750
C          C       0.21270   0.76360   0.76360
C          C       0.23950   0.69600   0.86180
C          C       0.11900   0.63140   0.80630
C          C       0.18050   0.71490   0.78630
C          C       0.51660   0.79880   0.03750
C          C       0.46930   0.77630   0.01190
C          C       0.44420   0.74770   0.01960
C          C       0.44940   0.78420   0.98090
C          C       0.40020   0.72720   0.99630
C          C       0.38090   0.73490   0.96370
C          C       0.21990   0.64710   0.88910
C          C       0.25110   0.67990   0.88890
C          C       0.29660   0.69880   0.91770
C          C       0.40530   0.76360   0.95620
C          C       0.23040   0.63140   0.91770
C          C       0.33390   0.71490   0.93970
C          C       0.73460   0.00990   0.18040
C          C       0.76020   0.05720   0.20290
C          C       0.75250   0.08230   0.23150
C          C       0.79120   0.07710   0.19500
C          C       0.77580   0.12630   0.25200
C          C       0.80840   0.14560   0.24430
C          C       0.88300   0.30660   0.33210
C          C       0.88320   0.27540   0.29930
C          C       0.85440   0.22990   0.28040
C          C       0.81590   0.12120   0.21560
C          C       0.85440   0.29610   0.34780
C          C       0.83240   0.19260   0.26430
C          C       0.58580   0.87280   0.18070
C          C       0.56210   0.87630   0.20510
C          C       0.42800   0.86970   0.32080
C          C       0.52920   0.83950   0.19700
C          C       0.57070   0.91580   0.23340
C          C       0.41300   0.82640   0.29270
C          C       0.51790   0.88330   0.24920
C          C       0.50720   0.84510   0.22120
C          C       0.46100   0.90360   0.32250
C          C       0.55080   0.91890   0.25840
C          C       0.41200   0.88290   0.34860
C          C       0.47910   0.89320   0.29600
C          C       0.47600   0.94590   0.34960
C          C       0.49760   0.88760   0.27550
C          C       0.37980   0.85070   0.34860
C          C       0.31780   0.78770   0.34960
C          C       0.22200   0.50900   0.18070
C          C       0.24290   0.55710   0.20510
C          C       0.36520   0.80690   0.32080
C          C       0.27160   0.58190   0.19700
C          C       0.23170   0.57680   0.23340
C          C       0.38040   0.79380   0.29270
C          C       0.28020   0.64550   0.24920
C          C       0.29020   0.62810   0.22120
C          C       0.33300   0.77560   0.32250
C          C       0.25360   0.62170   0.25840
C          C       0.31690   0.73100   0.29600
C          C       0.30200   0.69200   0.27550
C          C       0.73460   0.37370   0.54420
C          C       0.76020   0.37680   0.52250
C          C       0.75250   0.34050   0.48970
C          C       0.79120   0.41570   0.53360
C          C       0.77580   0.34330   0.46900
C          C       0.80840   0.38360   0.48230
C          C       0.88300   0.37040   0.39590
C          C       0.88320   0.40340   0.42730
C          C       0.85440   0.39350   0.44400
C          C       0.81590   0.41980   0.51420
C          C       0.85440   0.32610   0.37780
C          C       0.83240   0.38760   0.45930
C          C       0.22200   0.86080   0.53250
C          C       0.24290   0.85730   0.50530
C          C       0.36520   0.86390   0.37780
C          C       0.27160   0.89410   0.50920
C          C       0.23170   0.81780   0.47440
C          C       0.38040   0.90720   0.40610
C          C       0.28020   0.85040   0.45410
C          C       0.29020   0.88850   0.48160
C          C       0.33300   0.83000   0.37690
C          C       0.25360   0.81470   0.45140
C          C       0.31690   0.84040   0.40540
C          C       0.30200   0.84600   0.42950
C          C       0.58580   0.22460   0.53250
C          C       0.56210   0.17650   0.50530
C          C       0.42800   0.92670   0.37780
C          C       0.52920   0.15170   0.50920
C          C       0.57070   0.15680   0.47440
C          C       0.41300   0.93980   0.40610
C          C       0.51790   0.08820   0.45410
C          C       0.50720   0.10550   0.48160
C          C       0.46100   0.95800   0.37690
C          C       0.55080   0.11190   0.45140
C          C       0.47910   0.00260   0.40540
C          C       0.49760   0.04160   0.42950
C          C       0.41030   0.35150   0.84770
C          C       0.40910   0.28700   0.78200
C          C       0.23480   0.00990   0.68060
C          C       0.25960   0.05720   0.70230
C          C       0.25610   0.08230   0.73510
C          C       0.28740   0.07710   0.69120
C          C       0.27960   0.12630   0.75580
C          C       0.30660   0.14560   0.74250
C          C       0.37980   0.30660   0.82890
C          C       0.38140   0.27540   0.79750
C          C       0.35480   0.22990   0.78080
C          C       0.31090   0.12120   0.71060
C          C       0.35360   0.29610   0.84700
C          C       0.33360   0.19260   0.76550
C          C       0.23480   0.37370   0.04440
C          C       0.25960   0.37680   0.02190
C          C       0.25610   0.34050   0.99330
C          C       0.28740   0.41570   0.02980
C          C       0.27960   0.34330   0.97280
C          C       0.30660   0.38360   0.98050
C          C       0.41030   0.38210   0.87830
C          C       0.37980   0.37040   0.89270
C          C       0.38140   0.40340   0.92550
C          C       0.35480   0.39350   0.94440
C          C       0.31090   0.41980   0.00920
C          C       0.40910   0.44660   0.94160
C          C       0.35360   0.32610   0.87700
C          C       0.33360   0.38760   0.96050
C          C       0.90910   0.35150   0.34650
C          C       0.91030   0.28700   0.28320
C          C       0.08460   0.35990   0.18040
C          C       0.05980   0.35680   0.20290
C          C       0.06330   0.39310   0.23150
C          C       0.03200   0.31790   0.19500
C          C       0.03980   0.39030   0.25200
C          C       0.01280   0.35000   0.24430
C          C       0.93960   0.36320   0.33210
C          C       0.93800   0.33020   0.29930
C          C       0.96460   0.34010   0.28040
C          C       0.00850   0.31380   0.21560
C          C       0.96580   0.40750   0.34780
C          C       0.98580   0.34600   0.26430
C          C       0.08460   0.72370   0.54420
C          C       0.05980   0.67640   0.52250
C          C       0.06330   0.65130   0.48970
C          C       0.03200   0.65650   0.53360
C          C       0.03980   0.60730   0.46900
C          C       0.01280   0.58800   0.48230
C          C       0.90910   0.38210   0.37710
C          C       0.93960   0.42700   0.39590
C          C       0.93800   0.45820   0.42730
C          C       0.96460   0.50370   0.44400
C          C       0.00850   0.61240   0.51420
C          C       0.91030   0.44660   0.44280
C          C       0.96580   0.43750   0.37780
C          C       0.98580   0.54100   0.45930
C          C       0.58480   0.35990   0.68060
C          C       0.55920   0.35680   0.70230
C          C       0.56690   0.39310   0.73510
C          C       0.52820   0.31790   0.69120
C          C       0.54360   0.39030   0.75580
C          C       0.51100   0.35000   0.74250
C          C       0.43640   0.36320   0.82890
C          C       0.43620   0.33020   0.79750
C          C       0.46500   0.34010   0.78080
C          C       0.50350   0.31380   0.71060
C          C       0.46500   0.40750   0.84700
C          C       0.48700   0.34600   0.76550
C          C       0.58480   0.72370   0.04440
C          C       0.55920   0.67640   0.02190
C          C       0.56690   0.65130   0.99330
C          C       0.52820   0.65650   0.02980
C          C       0.54360   0.60730   0.97280
C          C       0.51100   0.58800   0.98050
C          C       0.43640   0.42700   0.89270
C          C       0.43620   0.45820   0.92550
C          C       0.46500   0.50370   0.94440
C          C       0.50350   0.61240   0.00920
C          C       0.46500   0.43750   0.87700
C          C       0.48700   0.54100   0.96050
C          C       0.93960   0.88290   0.87620
C          C       0.00160   0.94590   0.87520
C          C       0.73360   0.50900   0.69230
C          C       0.75730   0.55710   0.71950
C          C       0.89140   0.80690   0.84700
C          C       0.79020   0.58190   0.71560
C          C       0.74870   0.57680   0.75040
C          C       0.90640   0.79380   0.81870
C          C       0.80160   0.64550   0.77060
C          C       0.81220   0.62810   0.74320
C          C       0.85840   0.77560   0.84790
C          C       0.76860   0.62170   0.77340
C          C       0.90740   0.85070   0.87620
C          C       0.84030   0.73100   0.81940
C          C       0.84340   0.78770   0.87520
C          C       0.82180   0.69200   0.79530
C          C       0.09740   0.87280   0.69230
C          C       0.07650   0.87630   0.71950
C          C       0.95420   0.86970   0.84700
C          C       0.04780   0.83950   0.71560
C          C       0.08770   0.91580   0.75040
C          C       0.93900   0.82640   0.81870
C          C       0.03930   0.88330   0.77060
C          C       0.02920   0.84510   0.74320
C          C       0.98640   0.90360   0.84790
C          C       0.06580   0.91890   0.77340
C          C       0.00250   0.89320   0.81940
C          C       0.01740   0.88760   0.79530
C          C       0.09740   0.22460   0.04410
C          C       0.07650   0.17650   0.01970
C          C       0.95420   0.92670   0.90400
C          C       0.04780   0.15170   0.02780
C          C       0.08770   0.15680   0.99140
C          C       0.93900   0.93980   0.93210
C          C       0.03930   0.08820   0.97550
C          C       0.02920   0.10550   0.00360
C          C       0.98640   0.95800   0.90230
C          C       0.06580   0.11190   0.96640
C          C       0.00250   0.00260   0.92880
C          C       0.01740   0.04160   0.94930
C          C       0.73360   0.86080   0.04410
C          C       0.75730   0.85730   0.01970
C          C       0.89140   0.86390   0.90400
C          C       0.79020   0.89410   0.02780
C          C       0.74870   0.81780   0.99140
C          C       0.90640   0.90720   0.93210
C          C       0.80160   0.85040   0.97550
C          C       0.81220   0.88850   0.00360
C          C       0.85840   0.83000   0.90230
C          C       0.76860   0.81470   0.96640
C          C       0.84030   0.84040   0.92880
C          C       0.82180   0.84600   0.94930
H          H       0.71470   0.80260   0.25060
H          H       0.86190   0.99140   0.18340
H          H       0.58530   0.74290   0.18170
H          H       0.70750   0.70490   0.34790
H          H       0.85290   0.92900   0.24880
H          H       0.70600   0.76270   0.28760
H          H       0.58060   0.69780   0.21170
H          H       0.93630   0.02560   0.22240
H          H       0.55900   0.62970   0.27460
H          H       0.92720   0.96440   0.29050
H          H       0.05840   0.01570   0.36260
H          H       0.05970   0.09100   0.28760
H          H       0.36210   0.45000   0.25060
H          H       0.35290   0.51050   0.18170
H          H       0.55710   0.55450   0.34790
H          H       0.43900   0.49570   0.28760
H          H       0.42800   0.54520   0.21170
H          H       0.78430   0.93780   0.31460
H          H       0.72190   0.00320   0.30560
H          H       0.81850   0.97680   0.38900
H          H       0.75730   0.04490   0.37990
H          H       0.80860   0.11700   0.51110
H          H       0.88390   0.04200   0.51240
H          H       0.72390   0.72860   0.05740
H          H       0.78360   0.79750   0.18680
H          H       0.82160   0.63130   0.06460
H          H       0.76380   0.69160   0.06610
H          H       0.82870   0.76750   0.19150
H          H       0.89680   0.70460   0.21310
H          H       0.89680   0.50320   0.01170
H          H       0.72390   0.48600   0.81480
H          H       0.78360   0.41630   0.80560
H          H       0.82160   0.57650   0.00980
H          H       0.76380   0.51720   0.89170
H          H       0.82870   0.45670   0.88070
H          H       0.78430   0.28920   0.66600
H          H       0.72190   0.23580   0.53820
H          H       0.81850   0.24900   0.66120
H          H       0.75730   0.19690   0.53190
H          H       0.88390   0.19100   0.66140
H          H       0.60470   0.45000   0.49320
H          H       0.73410   0.51050   0.56290
H          H       0.61190   0.55450   0.40270
H          H       0.61340   0.49570   0.46200
H          H       0.73880   0.54520   0.52250
H          H       0.76040   0.62970   0.47600
H          H       0.95730   0.80260   0.49320
H          H       0.96650   0.74290   0.56290
H          H       0.76230   0.70490   0.40270
H          H       0.88040   0.76270   0.46200
H          H       0.89140   0.69780   0.52250
H          H       0.21330   0.99140   0.53480
H          H       0.08550   0.92900   0.48140
H          H       0.20850   0.02560   0.49460
H          H       0.07920   0.96440   0.44250
H          H       0.20870   0.09100   0.43660
H          H       0.01120   0.11700   0.71370
H          H       0.02850   0.93780   0.55880
H          H       0.10290   0.00320   0.68660
H          H       0.99310   0.97680   0.56360
H          H       0.07030   0.04490   0.69290
H          H       0.93490   0.04200   0.56340
H          H       0.07650   0.48600   0.16740
H          H       0.01600   0.41630   0.03800
H          H       0.97200   0.57650   0.16020
H          H       0.03080   0.51720   0.15870
H          H       0.98130   0.45670   0.03330
H          H       0.07650   0.72860   0.41000
H          H       0.01600   0.79750   0.41920
H          H       0.97200   0.63130   0.21500
H          H       0.03080   0.69160   0.33310
H          H       0.98130   0.76750   0.34410
H          H       0.02850   0.28920   0.91020
H          H       0.10290   0.23580   0.91920
H          H       0.99310   0.24900   0.83580
H          H       0.07030   0.19690   0.84490
H          H       0.93490   0.19100   0.71240
H          H       0.26100   0.21830   0.36260
H          H       0.10610   0.23560   0.18340
H          H       0.23390   0.31000   0.24880
H          H       0.11090   0.20020   0.22240
H          H       0.24020   0.27740   0.29050
H          H       0.11070   0.14200   0.28760
H          H       0.30820   0.61660   0.51110
H          H       0.29090   0.44440   0.31460
H          H       0.21650   0.49780   0.30560
H          H       0.32630   0.48460   0.38900
H          H       0.24910   0.53670   0.37990
H          H       0.38450   0.54260   0.51240
H          H       0.29090   0.79580   0.66600
H          H       0.21650   0.73040   0.53820
H          H       0.32630   0.75680   0.66120
H          H       0.24910   0.68870   0.53190
H          H       0.38450   0.69160   0.66140
H          H       0.45750   0.23560   0.53480
H          H       0.46650   0.31000   0.48140
H          H       0.38310   0.20020   0.49460
H          H       0.39220   0.27740   0.44250
H          H       0.25970   0.14200   0.43660
H          H       0.53510   0.44440   0.55880
H          H       0.59750   0.49780   0.68660
H          H       0.50090   0.48460   0.56360
H          H       0.56210   0.53670   0.69290
H          H       0.51080   0.61660   0.71370
H          H       0.43550   0.54260   0.56340
H          H       0.53510   0.79580   0.91020
H          H       0.59750   0.73040   0.91920
H          H       0.50090   0.75680   0.83580
H          H       0.56210   0.68870   0.84490
H          H       0.43550   0.69160   0.71240
H          H       0.42260   0.23040   0.21310
H          H       0.24290   0.00500   0.81480
H          H       0.30340   0.93610   0.80560
H          H       0.34740   0.10230   0.00980
H          H       0.28860   0.04200   0.89170
H          H       0.33810   0.96610   0.88070
H          H       0.42260   0.02900   0.01170
H          H       0.24290   0.24760   0.05740
H          H       0.30340   0.31730   0.18680
H          H       0.34740   0.15710   0.06460
H          H       0.28860   0.21640   0.06610
H          H       0.33810   0.27690   0.19150
H          H       0.59550   0.24760   0.41000
H          H       0.53580   0.31730   0.41920
H          H       0.49780   0.15710   0.21500
H          H       0.55560   0.21640   0.33310
H          H       0.49070   0.27690   0.34410
H          H       0.59550   0.00500   0.16740
H          H       0.53580   0.93610   0.03800
H          H       0.49780   0.10230   0.16020
H          H       0.55560   0.04200   0.15870
H          H       0.49070   0.96610   0.03330
H          H       0.05840   0.51530   0.86220
H          H       0.86190   0.49800   0.69000
H          H       0.85290   0.42360   0.74340
H          H       0.93630   0.53340   0.73020
H          H       0.92720   0.45620   0.78230
H          H       0.05970   0.59160   0.78820
H          H       0.36210   0.93100   0.73160
H          H       0.35290   0.99070   0.66190
H          H       0.55710   0.02870   0.82210
H          H       0.43900   0.97090   0.76280
H          H       0.42800   0.03580   0.70230
H          H       0.55900   0.10390   0.74880
H          H       0.71470   0.28360   0.73160
H          H       0.58530   0.22310   0.66190
H          H       0.70750   0.17910   0.82210
H          H       0.70600   0.23790   0.76280
H          H       0.58060   0.18840   0.70230
H          H       0.21330   0.49800   0.04140
H          H       0.08550   0.42360   0.97600
H          H       0.20850   0.53340   0.00240
H          H       0.07920   0.45620   0.93430
H          H       0.20870   0.59160   0.93720
H          H       0.95730   0.28360   0.97420
H          H       0.96650   0.22310   0.04310
H          H       0.76230   0.17910   0.87690
H          H       0.88040   0.23790   0.93720
H          H       0.89140   0.18840   0.01310
H          H       0.76040   0.10390   0.95020
H          H       0.60470   0.93100   0.97420
H          H       0.73410   0.99070   0.04310
H          H       0.61190   0.02870   0.87690
H          H       0.61340   0.97090   0.93720
H          H       0.73880   0.03580   0.01310
H          H       0.10610   0.74220   0.69000
H          H       0.23390   0.80460   0.74340
H          H       0.11090   0.70800   0.73020
H          H       0.24020   0.76920   0.78230
H          H       0.26100   0.71790   0.86220
H          H       0.11070   0.64260   0.78820
H          H       0.45750   0.74220   0.04140
H          H       0.46650   0.80460   0.97600
H          H       0.38310   0.70800   0.00240
H          H       0.39220   0.76920   0.93430
H          H       0.25970   0.64260   0.93720
H          H       0.73070   0.06900   0.23700
H          H       0.79610   0.06000   0.17460
H          H       0.76970   0.14340   0.27120
H          H       0.83780   0.13430   0.21000
H          H       0.83490   0.26680   0.33660
H          H       0.52150   0.81180   0.17660
H          H       0.59040   0.94120   0.23630
H          H       0.42420   0.81900   0.27430
H          H       0.48450   0.82050   0.21650
H          H       0.56040   0.94590   0.28140
H          H       0.49750   0.96750   0.34950
H          H       0.29610   0.76610   0.34950
H          H       0.27890   0.56920   0.17660
H          H       0.20920   0.56000   0.23630
H          H       0.36940   0.76420   0.27430
H          H       0.31010   0.64610   0.21650
H          H       0.24960   0.63510   0.28140
H          H       0.73070   0.31320   0.48120
H          H       0.79610   0.44100   0.55560
H          H       0.76970   0.31800   0.44580
H          H       0.83780   0.44730   0.52300
H          H       0.83490   0.31780   0.38760
H          H       0.27890   0.92180   0.52920
H          H       0.20920   0.79240   0.46870
H          H       0.36940   0.91460   0.42470
H          H       0.31010   0.91310   0.48350
H          H       0.24960   0.78770   0.43400
H          H       0.52150   0.16440   0.52920
H          H       0.59040   0.17360   0.46870
H          H       0.42420   0.96940   0.42470
H          H       0.48450   0.08750   0.48350
H          H       0.56040   0.09850   0.43400
H          H       0.40950   0.26550   0.76090
H          H       0.23730   0.06900   0.74360
H          H       0.29070   0.06000   0.66920
H          H       0.27750   0.14340   0.77900
H          H       0.32960   0.13430   0.70180
H          H       0.33550   0.26680   0.83720
H          H       0.23730   0.31320   0.98780
H          H       0.29070   0.44100   0.05020
H          H       0.27750   0.31800   0.95360
H          H       0.32960   0.44730   0.01480
H          H       0.40950   0.46810   0.96350
H          H       0.33550   0.31780   0.88820
H          H       0.90990   0.26550   0.26130
H          H       0.08210   0.42040   0.23700
H          H       0.02870   0.29260   0.17460
H          H       0.04190   0.41560   0.27120
H          H       0.98980   0.28630   0.21000
H          H       0.98390   0.41580   0.33660
H          H       0.08210   0.66460   0.48120
H          H       0.02870   0.67360   0.55560
H          H       0.04190   0.59020   0.44580
H          H       0.98980   0.59930   0.52300
H          H       0.90990   0.46810   0.46390
H          H       0.98390   0.46680   0.38760
H          H       0.58870   0.42040   0.74360
H          H       0.52330   0.29260   0.66920
H          H       0.54970   0.41560   0.77900
H          H       0.48160   0.28630   0.70180
H          H       0.48450   0.41580   0.83720
H          H       0.58870   0.66460   0.98780
H          H       0.52330   0.67360   0.05020
H          H       0.54970   0.59020   0.95360
H          H       0.48160   0.59930   0.01480
H          H       0.48450   0.46680   0.88820
H          H       0.02330   0.96750   0.87530
H          H       0.79790   0.56920   0.69560
H          H       0.72900   0.56000   0.75610
H          H       0.89520   0.76420   0.80010
H          H       0.83490   0.64610   0.74130
H          H       0.75900   0.63510   0.79080
H          H       0.82190   0.76610   0.87530
H          H       0.04050   0.81180   0.69560
H          H       0.11020   0.94120   0.75610
H          H       0.95000   0.81900   0.80010
H          H       0.00930   0.82050   0.74130
H          H       0.06980   0.94590   0.79080
H          H       0.04050   0.16440   0.04820
H          H       0.11020   0.17360   0.98850
H          H       0.95000   0.96940   0.95050
H          H       0.00930   0.08750   0.00830
H          H       0.06980   0.09850   0.94340
H          H       0.79790   0.92180   0.04820
H          H       0.72900   0.79240   0.98850
H          H       0.89520   0.91460   0.95050
H          H       0.83490   0.91310   0.00830
H          H       0.75900   0.78770   0.94340
O          O       0.61810   0.79020   0.15820
O          O       0.69110   0.82450   0.19630
O          O       0.78240   0.90880   0.19690
O          O       0.78640   0.94340   0.15890
O          O       0.71490   0.86450   0.11490
O          O       0.71510   0.92220   0.16780
O          O       0.28220   0.45430   0.15820
O          O       0.28590   0.41930   0.19630
O          O       0.70170   0.95130   0.23510
O          O       0.73630   0.91330   0.23910
O          O       0.65740   0.86930   0.16760
O          O       0.66220   0.92200   0.11010
O          O       0.73640   0.82100   0.15400
O          O       0.70200   0.78290   0.08100
O          O       0.73640   0.40180   0.73480
O          O       0.70200   0.44050   0.73860
O          O       0.70140   0.94350   0.06660
O          O       0.61390   0.90850   0.18900
O          O       0.61740   0.95070   0.14380
O          O       0.74360   0.89820   0.07010
O          O       0.74420   0.98950   0.15440
O          O       0.70620   0.99350   0.18900
O          O       0.60450   0.86910   0.10990
O          O       0.66200   0.86430   0.05720
O          O       0.65720   0.81160   0.11470
O          O       0.70170   0.28610   0.56990
O          O       0.73630   0.31670   0.64250
O          O       0.70140   0.45430   0.57740
O          O       0.62830   0.41930   0.53870
O          O       0.03730   0.79020   0.57740
O          O       0.03350   0.82450   0.53870
O          O       0.11720   0.90880   0.53170
O          O       0.18980   0.94340   0.56230
O          O       0.12150   0.95130   0.65490
O          O       0.07950   0.91330   0.58230
O          O       0.15490   0.86450   0.55490
O          O       0.07230   0.40180   0.07070
O          O       0.10720   0.44050   0.14380
O          O       0.07230   0.82100   0.48990
O          O       0.10720   0.78290   0.48620
O          O       0.10220   0.81160   0.55970
O          O       0.10700   0.86930   0.61720
O          O       0.15970   0.92220   0.61240
O          O       0.12150   0.28610   0.98970
O          O       0.07950   0.31670   0.98570
O          O       0.10700   0.30930   0.05720
O          O       0.15970   0.36680   0.05700
O          O       0.21720   0.37160   0.11470
O          O       0.12470   0.24440   0.03570
O          O       0.21220   0.29310   0.08100
O          O       0.23340   0.49300   0.15470
O          O       0.24040   0.40930   0.07040
O          O       0.18980   0.44700   0.06590
O          O       0.20980   0.33670   0.03580
O          O       0.15490   0.41950   0.10990
O          O       0.16450   0.31410   0.11490
O          O       0.21240   0.42430   0.16760
O          O       0.20220   0.32860   0.19690
O          O       0.12960   0.28660   0.15890
O          O       0.19790   0.44750   0.23510
O          O       0.23990   0.41690   0.23910
O          O       0.24720   0.33180   0.15400
O          O       0.15970   0.36680   0.16780
O          O       0.19790   0.78230   0.56990
O          O       0.23990   0.82030   0.64250
O          O       0.21240   0.86430   0.60760
O          O       0.15970   0.81140   0.61240
O          O       0.19470   0.82520   0.52490
O          O       0.08600   0.83540   0.66490
O          O       0.07900   0.74410   0.57420
O          O       0.12960   0.79020   0.66250
O          O       0.10960   0.74010   0.53220
O          O       0.16450   0.86910   0.66990
O          O       0.53700   0.32860   0.53170
O          O       0.53300   0.28660   0.56230
O          O       0.60450   0.31410   0.55490
O          O       0.60430   0.36680   0.61240
O          O       0.61770   0.44750   0.65490
O          O       0.58310   0.41690   0.58230
O          O       0.66200   0.42430   0.61720
O          O       0.65720   0.36200   0.66510
O          O       0.61810   0.27940   0.64740
O          O       0.58310   0.33180   0.48990
O          O       0.70550   0.48930   0.69980
O          O       0.57580   0.24060   0.55990
O          O       0.57520   0.32430   0.65060
O          O       0.61320   0.39690   0.69260
O          O       0.71490   0.41950   0.66990
O          O       0.65740   0.30930   0.60760
O          O       0.66220   0.37160   0.55970
O          O       0.61770   0.78230   0.98970
O          O       0.58310   0.82030   0.98570
O          O       0.24720   0.91260   0.73480
O          O       0.21220   0.95070   0.73860
O          O       0.61740   0.29310   0.48620
O          O       0.58310   0.91260   0.07070
O          O       0.78240   0.40500   0.69310
O          O       0.78640   0.44700   0.66250
O          O       0.28220   0.94350   0.64740
O          O       0.28590   0.90910   0.68610
O          O       0.69110   0.31430   0.68610
O          O       0.71510   0.36680   0.61240
O          O       0.11720   0.40500   0.02790
O          O       0.03730   0.27940   0.06660
O          O       0.03350   0.31430   0.02850
O          O       0.62830   0.90910   0.02850
O          O       0.10220   0.36200   0.11010
O          O       0.20220   0.82480   0.69310
O          O       0.21720   0.92200   0.66510
O          O       0.53700   0.82480   0.02790
O          O       0.53300   0.79020   0.06590
O          O       0.60430   0.81140   0.05700
O          O       0.57580   0.83540   0.15470
O          O       0.19470   0.48930   0.18900
O          O       0.74420   0.40930   0.57420
O          O       0.70620   0.33670   0.53220
O          O       0.23340   0.89820   0.55990
O          O       0.61390   0.24440   0.52490
O          O       0.24040   0.98950   0.65060
O          O       0.20980   0.99350   0.69260
O          O       0.12470   0.90850   0.69980
O          O       0.07900   0.32430   0.15440
O          O       0.10960   0.39690   0.18900
O          O       0.57520   0.74410   0.07040
O          O       0.61320   0.74010   0.03580
O          O       0.74360   0.49300   0.66490
O          O       0.08600   0.24060   0.07010
O          O       0.70550   0.82520   0.03570
Zr         Zr      0.71340   0.86690   0.17120
Zr         Zr      0.65980   0.92560   0.16610
Zr         Zr      0.71850   0.92050   0.11250
Zr         Zr      0.65960   0.42040   0.67110
Zr         Zr      0.21330   0.42550   0.11230
Zr         Zr      0.71340   0.36170   0.66600
Zr         Zr      0.21840   0.37190   0.17120
Zr         Zr      0.60600   0.86670   0.05360
Zr         Zr      0.65960   0.80800   0.05870
Zr         Zr      0.60090   0.81310   0.11230
Zr         Zr      0.65980   0.31320   0.55370
Zr         Zr      0.10100   0.86690   0.55880
Zr         Zr      0.60600   0.37190   0.55880
Zr         Zr      0.10100   0.36170   0.05360
Zr         Zr      0.15460   0.80800   0.55370
Zr         Zr      0.10610   0.81310   0.61750
Zr         Zr      0.16480   0.92560   0.67110
Zr         Zr      0.21330   0.92050   0.60730
Zr         Zr      0.15460   0.42040   0.16610
Zr         Zr      0.71850   0.42550   0.61750
Zr         Zr      0.16480   0.31320   0.05870
Zr         Zr      0.10610   0.30810   0.11250
Zr         Zr      0.21840   0.86670   0.66600
Zr         Zr      0.60090   0.30810   0.60730
