data_crystal

_cell_length_a    10.74020
_cell_length_b    30.62360
_cell_length_c    42.62820
_cell_angle_alpha 90.00000
_cell_angle_beta  90.00000
_cell_angle_gamma 90.00000

_symmetry_space_group_name_Hall 'P 1'
_symmetry_space_group_name_H-M  'P 1'

loop_
_symmetry_equiv_pos_as_xyz
 'x,y,z'

loop_
_atom_site_label
_atom_site_type_symbol
_atom_site_fract_x
_atom_site_fract_y
_atom_site_fract_z
Zn         Zn      0.61540   0.28980   0.27130
Zn         Zn      0.00000   0.25000   0.36240
O          O       0.50000   0.25000   0.25000
O          O       0.51900   0.32600   0.29940
O          O       0.70000   0.35050   0.31620
O          O       0.45100   0.29930   0.61620
O          O       0.27900   0.27040   0.60050
N          N       0.86750   0.23070   0.33220
N          N       0.72430   0.25070   0.29560
N          N       0.98940   0.13950   0.32680
H          H       0.01940   0.11320   0.32350
H          H       0.01260   0.15440   0.34340
C          C       0.85070   0.19730   0.30930
N          N       0.87480   0.13270   0.28060
N          N       0.73600   0.18640   0.26320
C          C       0.79030   0.14700   0.25940
H          H       0.76910   0.12920   0.24190
C          C       0.76630   0.21170   0.28810
C          C       0.90500   0.15780   0.30550
C          C       0.78820   0.26050   0.32250
H          H       0.77610   0.28720   0.33340
C          C       0.58400   0.35690   0.31220
C          C       0.58080   0.40160   0.36170
H          H       0.66700   0.39590   0.36440
C          C       0.51800   0.38360   0.33660
C          C       0.51840   0.42790   0.38290
H          H       0.56200   0.44030   0.40010
C          C       0.39280   0.43610   0.37900
C          C       0.32950   0.41810   0.35380
H          H       0.24310   0.42370   0.35110
C          C       0.39200   0.39190   0.33260
H          H       0.34860   0.37960   0.31530
C          C       0.25000   0.50000   0.38360
H          H       0.25000   0.50000   0.36130
C          C       0.30080   0.46460   0.39890
C          C       0.30080   0.46360   0.43210
C          C       0.35200   0.42850   0.44970
H          H       0.39030   0.40510   0.43880
C          C       0.34700   0.42720   0.48160
H          H       0.37840   0.40270   0.49270
C          C       0.29400   0.46250   0.49800
C          C       0.28900   0.46300   0.53090
C          C       0.25000   0.50000   0.54710
H          H       0.25000   0.50000   0.56940
C          C       0.25000   0.50000   0.48170
C          C       0.25000   0.50000   0.44850
C          C       0.38800   0.38210   0.59230
H          H       0.44380   0.38230   0.60970
C          C       0.28970   0.41900   0.55050
C          C       0.36930   0.41930   0.57550
H          H       0.41130   0.44550   0.58110
C          C       0.32800   0.34470   0.58420
C          C       0.24900   0.34430   0.55930
H          H       0.20660   0.31820   0.55370
C          C       0.22940   0.38150   0.54250
H          H       0.17390   0.38140   0.52520
C          C       0.34900   0.30370   0.60210
O          O       0.98100   0.67400   0.29940
O          O       0.80000   0.64950   0.31620
O          O       0.04900   0.70070   0.61620
O          O       0.22100   0.72960   0.60050
C          C       0.91600   0.64310   0.31220
C          C       0.91920   0.59840   0.36170
H          H       0.83300   0.60410   0.36440
C          C       0.98200   0.61640   0.33660
C          C       0.98160   0.57210   0.38290
H          H       0.93800   0.55970   0.40010
C          C       0.10720   0.56390   0.37900
C          C       0.17050   0.58190   0.35380
H          H       0.25690   0.57630   0.35110
C          C       0.10800   0.60810   0.33260
H          H       0.15140   0.62040   0.31530
C          C       0.19920   0.53540   0.39890
C          C       0.19920   0.53640   0.43210
C          C       0.14800   0.57150   0.44970
H          H       0.10970   0.59490   0.43880
C          C       0.15300   0.57280   0.48160
H          H       0.12160   0.59730   0.49270
C          C       0.20600   0.53750   0.49800
C          C       0.21100   0.53700   0.53090
C          C       0.11200   0.61790   0.59230
H          H       0.05620   0.61770   0.60970
C          C       0.21030   0.58100   0.55050
C          C       0.13070   0.58070   0.57550
H          H       0.08870   0.55450   0.58110
C          C       0.17200   0.65530   0.58420
C          C       0.25100   0.65570   0.55930
H          H       0.29340   0.68180   0.55370
C          C       0.27060   0.61850   0.54250
H          H       0.32610   0.61860   0.52520
C          C       0.15100   0.69630   0.60210
Zn         Zn      0.88460   0.71020   0.27130
N          N       0.63250   0.76930   0.33220
N          N       0.77570   0.74930   0.29560
N          N       0.51060   0.86050   0.32680
H          H       0.48060   0.88680   0.32350
H          H       0.48740   0.84560   0.34340
C          C       0.64930   0.80270   0.30930
N          N       0.62520   0.86730   0.28060
N          N       0.76400   0.81360   0.26320
C          C       0.70970   0.85310   0.25940
H          H       0.73090   0.87080   0.24190
C          C       0.73370   0.78840   0.28810
C          C       0.59500   0.84220   0.30550
C          C       0.71180   0.73950   0.32250
H          H       0.72390   0.71280   0.33340
Zn         Zn      0.38460   0.28980   0.22870
O          O       0.48100   0.32600   0.20060
O          O       0.30000   0.35050   0.18380
O          O       0.54900   0.29930   0.88380
O          O       0.72100   0.27040   0.89950
N          N       0.13250   0.23070   0.16780
N          N       0.27570   0.25070   0.20440
N          N       0.01060   0.13950   0.17320
H          H       0.98060   0.11320   0.17650
H          H       0.98740   0.15440   0.15650
C          C       0.14930   0.19730   0.19070
N          N       0.12520   0.13270   0.21940
N          N       0.26400   0.18640   0.23680
C          C       0.20970   0.14700   0.24060
H          H       0.23090   0.12920   0.25810
C          C       0.23370   0.21170   0.21190
C          C       0.09500   0.15780   0.19450
C          C       0.21180   0.26050   0.17750
H          H       0.22390   0.28720   0.16660
C          C       0.41600   0.35690   0.18780
C          C       0.41920   0.40160   0.13830
H          H       0.33300   0.39590   0.13560
C          C       0.48200   0.38360   0.16340
C          C       0.48160   0.42790   0.11710
H          H       0.43800   0.44030   0.09990
C          C       0.60720   0.43610   0.12100
C          C       0.67050   0.41810   0.14620
H          H       0.75690   0.42370   0.14890
C          C       0.60800   0.39190   0.16740
H          H       0.65140   0.37960   0.18470
C          C       0.75000   0.50000   0.11640
H          H       0.75000   0.50000   0.13870
C          C       0.69920   0.46460   0.10110
C          C       0.69920   0.46360   0.06790
C          C       0.64800   0.42850   0.05030
H          H       0.60970   0.40510   0.06120
C          C       0.65300   0.42720   0.01840
H          H       0.62160   0.40270   0.00730
C          C       0.70600   0.46250   0.00200
C          C       0.71100   0.46300   0.96910
C          C       0.75000   0.50000   0.95290
H          H       0.75000   0.50000   0.93060
C          C       0.75000   0.50000   0.01830
C          C       0.75000   0.50000   0.05150
C          C       0.61200   0.38210   0.90770
H          H       0.55620   0.38230   0.89030
C          C       0.71030   0.41900   0.94950
C          C       0.63070   0.41930   0.92450
H          H       0.58870   0.44550   0.91890
C          C       0.67200   0.34470   0.91580
C          C       0.75100   0.34430   0.94070
H          H       0.79340   0.31820   0.94630
C          C       0.77060   0.38150   0.95750
H          H       0.82610   0.38140   0.97480
C          C       0.65100   0.30370   0.89790
O          O       0.01900   0.67400   0.20060
O          O       0.20000   0.64950   0.18380
O          O       0.95100   0.70070   0.88380
O          O       0.77900   0.72960   0.89950
C          C       0.08400   0.64310   0.18780
C          C       0.08080   0.59840   0.13830
H          H       0.16700   0.60410   0.13560
C          C       0.01800   0.61640   0.16340
C          C       0.01840   0.57210   0.11710
H          H       0.06200   0.55970   0.09990
C          C       0.89280   0.56390   0.12100
C          C       0.82950   0.58190   0.14620
H          H       0.74310   0.57630   0.14890
C          C       0.89200   0.60810   0.16740
H          H       0.84860   0.62040   0.18470
C          C       0.80080   0.53540   0.10110
C          C       0.80080   0.53640   0.06790
C          C       0.85200   0.57150   0.05030
H          H       0.89030   0.59490   0.06120
C          C       0.84700   0.57280   0.01840
H          H       0.87840   0.59730   0.00730
C          C       0.79400   0.53750   0.00200
C          C       0.78900   0.53700   0.96910
C          C       0.88800   0.61790   0.90770
H          H       0.94380   0.61770   0.89030
C          C       0.78970   0.58100   0.94950
C          C       0.86930   0.58070   0.92450
H          H       0.91130   0.55450   0.91890
C          C       0.82800   0.65530   0.91580
C          C       0.74900   0.65570   0.94070
H          H       0.70660   0.68180   0.94630
C          C       0.72940   0.61850   0.95750
H          H       0.67390   0.61860   0.97480
C          C       0.84900   0.69630   0.89790
Zn         Zn      0.38460   0.21020   0.27130
N          N       0.13250   0.26930   0.33220
N          N       0.27570   0.24930   0.29560
N          N       0.01060   0.36050   0.32680
H          H       0.98060   0.38680   0.32350
H          H       0.98740   0.34560   0.34340
C          C       0.14930   0.30270   0.30930
N          N       0.12520   0.36730   0.28060
N          N       0.26400   0.31360   0.26320
C          C       0.20970   0.35310   0.25940
H          H       0.23090   0.37080   0.24190
C          C       0.23370   0.28840   0.28810
C          C       0.09500   0.34220   0.30550
C          C       0.21180   0.23950   0.32250
H          H       0.22390   0.21280   0.33340
Zn         Zn      0.50000   0.25000   0.63760
Zn         Zn      0.11540   0.71020   0.22870
Zn         Zn      0.88460   0.78980   0.22870
Zn         Zn      0.61540   0.21020   0.22870
Zn         Zn      0.50000   0.75000   0.36240
Zn         Zn      0.00000   0.25000   0.13760
Zn         Zn      0.00000   0.75000   0.63760
Zn         Zn      0.00000   0.75000   0.86240
Zn         Zn      0.50000   0.25000   0.86240
O          O       0.00000   0.75000   0.25000
O          O       0.48100   0.17400   0.29940
O          O       0.54900   0.20070   0.61620
O          O       0.95100   0.29930   0.38380
O          O       0.04900   0.20070   0.38380
N          N       0.36750   0.23070   0.66780
N          N       0.63250   0.26930   0.66780
N          N       0.76400   0.68640   0.23680
N          N       0.73600   0.31360   0.23680
N          N       0.36750   0.76930   0.16780
N          N       0.22430   0.74930   0.20440
N          N       0.48940   0.86050   0.17320
H          H       0.51940   0.88680   0.17650
H          H       0.51260   0.84560   0.15650
C          C       0.35070   0.80270   0.19070
N          N       0.37480   0.86730   0.21940
N          N       0.23600   0.81360   0.23680
C          C       0.29030   0.85310   0.24060
H          H       0.26910   0.87080   0.25810
C          C       0.26630   0.78840   0.21190
C          C       0.40500   0.84220   0.19450
C          C       0.28820   0.73950   0.17750
H          H       0.27610   0.71280   0.16660
Zn         Zn      0.11540   0.78980   0.27130
N          N       0.36750   0.73070   0.33220
N          N       0.22430   0.75070   0.29560
N          N       0.48940   0.63950   0.32680
H          H       0.51940   0.61320   0.32350
H          H       0.51260   0.65440   0.34340
C          C       0.35070   0.69730   0.30930
N          N       0.37480   0.63270   0.28060
N          N       0.23600   0.68640   0.26320
C          C       0.29030   0.64700   0.25940
H          H       0.26910   0.62920   0.24190
C          C       0.26630   0.71170   0.28810
C          C       0.40500   0.65780   0.30550
C          C       0.28820   0.76050   0.32250
H          H       0.27610   0.78720   0.33340
Zn         Zn      0.50000   0.75000   0.13760
O          O       0.01900   0.82600   0.29940
O          O       0.95100   0.79930   0.61620
O          O       0.54900   0.70070   0.38380
O          O       0.45100   0.79930   0.38380
N          N       0.13250   0.76930   0.66780
N          N       0.86750   0.73070   0.66780
N          N       0.86750   0.26930   0.16780
N          N       0.72430   0.24930   0.20440
N          N       0.98940   0.36050   0.17320
H          H       0.01940   0.38680   0.17650
H          H       0.01260   0.34560   0.15650
C          C       0.85070   0.30270   0.19070
N          N       0.87480   0.36730   0.21940
C          C       0.79030   0.35310   0.24060
H          H       0.76910   0.37080   0.25810
C          C       0.76630   0.28840   0.21190
C          C       0.90500   0.34220   0.19450
C          C       0.78820   0.23950   0.17750
H          H       0.77610   0.21280   0.16660
O          O       0.51900   0.17400   0.20060
O          O       0.45100   0.20070   0.88380
O          O       0.04900   0.29930   0.11620
O          O       0.95100   0.20070   0.11620
N          N       0.63250   0.23070   0.83220
N          N       0.36750   0.26930   0.83220
N          N       0.63250   0.73070   0.16780
N          N       0.77570   0.75070   0.20440
N          N       0.51060   0.63950   0.17320
H          H       0.48060   0.61320   0.17650
H          H       0.48740   0.65440   0.15650
C          C       0.64930   0.69730   0.19070
N          N       0.62520   0.63270   0.21940
C          C       0.70970   0.64700   0.24060
H          H       0.73090   0.62920   0.25810
C          C       0.73370   0.71170   0.21190
C          C       0.59500   0.65780   0.19450
C          C       0.71180   0.76050   0.17750
H          H       0.72390   0.78720   0.16660
O          O       0.98100   0.82600   0.20060
O          O       0.04900   0.79930   0.88380
O          O       0.45100   0.70070   0.11620
O          O       0.54900   0.79930   0.11620
N          N       0.86750   0.76930   0.83220
N          N       0.13250   0.73070   0.83220
O          O       0.20000   0.85050   0.31620
O          O       0.77900   0.77040   0.60050
C          C       0.08400   0.85690   0.31220
C          C       0.08080   0.90160   0.36170
H          H       0.16700   0.89590   0.36440
C          C       0.01800   0.88360   0.33660
C          C       0.01840   0.92790   0.38290
H          H       0.06200   0.94030   0.40010
C          C       0.89280   0.93610   0.37900
C          C       0.82950   0.91810   0.35380
H          H       0.74310   0.92370   0.35110
C          C       0.89200   0.89190   0.33260
H          H       0.84860   0.87960   0.31530
C          C       0.75000   0.00000   0.38360
H          H       0.75000   0.00000   0.36130
C          C       0.80080   0.96460   0.39890
C          C       0.80080   0.96360   0.43210
C          C       0.85200   0.92850   0.44970
H          H       0.89030   0.90510   0.43880
C          C       0.84700   0.92720   0.48160
H          H       0.87840   0.90270   0.49270
C          C       0.79400   0.96250   0.49800
C          C       0.78900   0.96300   0.53090
C          C       0.75000   0.00000   0.54710
H          H       0.75000   0.00000   0.56940
C          C       0.75000   0.00000   0.48170
C          C       0.75000   0.00000   0.44850
C          C       0.88800   0.88210   0.59230
H          H       0.94380   0.88230   0.60970
C          C       0.78970   0.91900   0.55050
C          C       0.86930   0.91930   0.57550
H          H       0.91130   0.94550   0.58110
C          C       0.82800   0.84470   0.58420
C          C       0.74900   0.84430   0.55930
H          H       0.70660   0.81820   0.55370
C          C       0.72940   0.88150   0.54250
H          H       0.67390   0.88140   0.52520
C          C       0.84900   0.80370   0.60210
O          O       0.30000   0.14950   0.31620
O          O       0.72100   0.22960   0.60050
C          C       0.41600   0.14310   0.31220
C          C       0.41920   0.09840   0.36170
H          H       0.33300   0.10410   0.36440
C          C       0.48200   0.11640   0.33660
C          C       0.48160   0.07210   0.38290
H          H       0.43800   0.05970   0.40010
C          C       0.60720   0.06390   0.37900
C          C       0.67050   0.08190   0.35380
H          H       0.75690   0.07630   0.35110
C          C       0.60800   0.10810   0.33260
H          H       0.65140   0.12040   0.31530
C          C       0.69920   0.03540   0.39890
C          C       0.69920   0.03640   0.43210
C          C       0.64800   0.07150   0.44970
H          H       0.60970   0.09490   0.43880
C          C       0.65300   0.07280   0.48160
H          H       0.62160   0.09730   0.49270
C          C       0.70600   0.03750   0.49800
C          C       0.71100   0.03700   0.53090
C          C       0.61200   0.11790   0.59230
H          H       0.55620   0.11770   0.60970
C          C       0.71030   0.08100   0.55050
C          C       0.63070   0.08070   0.57550
H          H       0.58870   0.05450   0.58110
C          C       0.67200   0.15530   0.58420
C          C       0.75100   0.15570   0.55930
H          H       0.79340   0.18180   0.55370
C          C       0.77060   0.11850   0.54250
H          H       0.82610   0.11860   0.52520
C          C       0.65100   0.19630   0.60210
O          O       0.80000   0.85050   0.18380
O          O       0.22100   0.77040   0.89950
C          C       0.91600   0.85690   0.18780
C          C       0.91920   0.90160   0.13830
H          H       0.83300   0.89590   0.13560
C          C       0.98200   0.88360   0.16340
C          C       0.98160   0.92790   0.11710
H          H       0.93800   0.94030   0.09990
C          C       0.10720   0.93610   0.12100
C          C       0.17050   0.91810   0.14620
H          H       0.25690   0.92370   0.14890
C          C       0.10800   0.89190   0.16740
H          H       0.15140   0.87960   0.18470
C          C       0.25000   0.00000   0.11640
H          H       0.25000   0.00000   0.13870
C          C       0.19920   0.96460   0.10110
C          C       0.19920   0.96360   0.06790
C          C       0.14800   0.92850   0.05030
H          H       0.10970   0.90510   0.06120
C          C       0.15300   0.92720   0.01840
H          H       0.12160   0.90270   0.00730
C          C       0.20600   0.96250   0.00200
C          C       0.21100   0.96300   0.96910
C          C       0.25000   0.00000   0.95290
H          H       0.25000   0.00000   0.93060
C          C       0.25000   0.00000   0.01830
C          C       0.25000   0.00000   0.05150
C          C       0.11200   0.88210   0.90770
H          H       0.05620   0.88230   0.89030
C          C       0.21030   0.91900   0.94950
C          C       0.13070   0.91930   0.92450
H          H       0.08870   0.94550   0.91890
C          C       0.17200   0.84470   0.91580
C          C       0.25100   0.84430   0.94070
H          H       0.29340   0.81820   0.94630
C          C       0.27060   0.88150   0.95750
H          H       0.32610   0.88140   0.97480
C          C       0.15100   0.80370   0.89790
O          O       0.70000   0.14950   0.18380
O          O       0.27900   0.22960   0.89950
C          C       0.58400   0.14310   0.18780
C          C       0.58080   0.09840   0.13830
H          H       0.66700   0.10410   0.13560
C          C       0.51800   0.11640   0.16340
C          C       0.51840   0.07210   0.11710
H          H       0.56200   0.05970   0.09990
C          C       0.39280   0.06390   0.12100
C          C       0.32950   0.08190   0.14620
H          H       0.24310   0.07630   0.14890
C          C       0.39200   0.10810   0.16740
H          H       0.34860   0.12040   0.18470
C          C       0.30080   0.03540   0.10110
C          C       0.30080   0.03640   0.06790
C          C       0.35200   0.07150   0.05030
H          H       0.39030   0.09490   0.06120
C          C       0.34700   0.07280   0.01840
H          H       0.37840   0.09730   0.00730
C          C       0.29400   0.03750   0.00200
C          C       0.28900   0.03700   0.96910
C          C       0.38800   0.11790   0.90770
H          H       0.44380   0.11770   0.89030
C          C       0.28970   0.08100   0.94950
C          C       0.36930   0.08070   0.92450
H          H       0.41130   0.05450   0.91890
C          C       0.32800   0.15530   0.91580
C          C       0.24900   0.15570   0.94070
H          H       0.20660   0.18180   0.94630
C          C       0.22940   0.11850   0.95750
H          H       0.17390   0.11860   0.97480
C          C       0.34900   0.19630   0.89790
Zn         Zn      0.38460   0.71020   0.72870
O          O       0.50000   0.75000   0.75000
O          O       0.48100   0.67400   0.70060
O          O       0.30000   0.64950   0.68380
O          O       0.72100   0.72960   0.39950
N          N       0.27570   0.74930   0.70440
N          N       0.01060   0.86050   0.67320
H          H       0.98060   0.88680   0.67650
H          H       0.98740   0.84560   0.65660
C          C       0.14930   0.80270   0.69070
N          N       0.12520   0.86730   0.71940
N          N       0.26400   0.81360   0.73680
C          C       0.20970   0.85310   0.74060
H          H       0.23090   0.87080   0.75810
C          C       0.23370   0.78840   0.71190
C          C       0.09500   0.84220   0.69450
C          C       0.21180   0.73950   0.67750
H          H       0.22390   0.71280   0.66660
C          C       0.41600   0.64310   0.68780
C          C       0.41920   0.59840   0.63830
H          H       0.33300   0.60410   0.63560
C          C       0.48200   0.61640   0.66340
C          C       0.48160   0.57210   0.61710
H          H       0.43800   0.55970   0.59990
C          C       0.60720   0.56390   0.62100
C          C       0.67050   0.58190   0.64620
H          H       0.75690   0.57630   0.64890
C          C       0.60800   0.60810   0.66740
H          H       0.65140   0.62040   0.68470
C          C       0.75000   0.50000   0.61640
H          H       0.75000   0.50000   0.63870
C          C       0.69920   0.53540   0.60110
C          C       0.69920   0.53640   0.56790
C          C       0.64800   0.57150   0.55030
H          H       0.60970   0.59490   0.56120
C          C       0.65300   0.57280   0.51840
H          H       0.62160   0.59730   0.50730
C          C       0.70600   0.53750   0.50200
C          C       0.71100   0.53700   0.46910
C          C       0.75000   0.50000   0.45290
H          H       0.75000   0.50000   0.43060
C          C       0.75000   0.50000   0.51830
C          C       0.75000   0.50000   0.55150
C          C       0.61200   0.61790   0.40770
H          H       0.55620   0.61770   0.39030
C          C       0.71030   0.58100   0.44950
C          C       0.63070   0.58070   0.42450
H          H       0.58870   0.55450   0.41890
C          C       0.67200   0.65530   0.41580
C          C       0.75100   0.65570   0.44070
H          H       0.79340   0.68180   0.44630
C          C       0.77060   0.61850   0.45750
H          H       0.82610   0.61860   0.47480
C          C       0.65100   0.69630   0.39790
O          O       0.01900   0.32600   0.70060
O          O       0.20000   0.35050   0.68380
O          O       0.77900   0.27040   0.39950
C          C       0.08400   0.35690   0.68780
C          C       0.08080   0.40160   0.63830
H          H       0.16700   0.39590   0.63560
C          C       0.01800   0.38360   0.66340
C          C       0.01840   0.42790   0.61710
H          H       0.06200   0.44030   0.59990
C          C       0.89280   0.43610   0.62100
C          C       0.82950   0.41810   0.64620
H          H       0.74310   0.42370   0.64890
C          C       0.89200   0.39190   0.66740
H          H       0.84860   0.37960   0.68470
C          C       0.80080   0.46460   0.60110
C          C       0.80080   0.46360   0.56790
C          C       0.85200   0.42850   0.55030
H          H       0.89030   0.40510   0.56120
C          C       0.84700   0.42720   0.51840
H          H       0.87840   0.40270   0.50730
C          C       0.79400   0.46250   0.50200
C          C       0.78900   0.46300   0.46910
C          C       0.88800   0.38210   0.40770
H          H       0.94380   0.38230   0.39030
C          C       0.78970   0.41900   0.44950
C          C       0.86930   0.41930   0.42450
H          H       0.91130   0.44550   0.41890
C          C       0.82800   0.34470   0.41580
C          C       0.74900   0.34430   0.44070
H          H       0.70660   0.31820   0.44630
C          C       0.72940   0.38150   0.45750
H          H       0.67390   0.38140   0.47480
C          C       0.84900   0.30370   0.39790
Zn         Zn      0.11540   0.28980   0.72870
N          N       0.22430   0.25070   0.70440
N          N       0.48940   0.13950   0.67320
H          H       0.51940   0.11320   0.67650
H          H       0.51260   0.15440   0.65660
C          C       0.35070   0.19730   0.69070
N          N       0.37480   0.13270   0.71940
N          N       0.23600   0.18640   0.73680
C          C       0.29030   0.14700   0.74060
H          H       0.26910   0.12920   0.75810
C          C       0.26630   0.21170   0.71190
C          C       0.40500   0.15780   0.69450
C          C       0.28820   0.26050   0.67750
H          H       0.27610   0.28720   0.66660
Zn         Zn      0.61540   0.71020   0.77130
O          O       0.51900   0.67400   0.79940
O          O       0.70000   0.64950   0.81620
O          O       0.27900   0.72960   0.10050
N          N       0.72430   0.74930   0.79560
N          N       0.98940   0.86050   0.82680
H          H       0.01940   0.88680   0.82350
H          H       0.01260   0.84560   0.84350
C          C       0.85070   0.80270   0.80930
N          N       0.87480   0.86730   0.78060
N          N       0.73600   0.81360   0.76320
C          C       0.79030   0.85310   0.75940
H          H       0.76910   0.87080   0.74190
C          C       0.76630   0.78840   0.78810
C          C       0.90500   0.84220   0.80550
C          C       0.78820   0.73950   0.82250
H          H       0.77610   0.71280   0.83340
C          C       0.58400   0.64310   0.81220
C          C       0.58080   0.59840   0.86170
H          H       0.66700   0.60410   0.86440
C          C       0.51800   0.61640   0.83660
C          C       0.51840   0.57210   0.88290
H          H       0.56200   0.55970   0.90010
C          C       0.39280   0.56390   0.87900
C          C       0.32950   0.58190   0.85380
H          H       0.24310   0.57630   0.85110
C          C       0.39200   0.60810   0.83260
H          H       0.34860   0.62040   0.81530
C          C       0.25000   0.50000   0.88360
H          H       0.25000   0.50000   0.86130
C          C       0.30080   0.53540   0.89890
C          C       0.30080   0.53640   0.93210
C          C       0.35200   0.57150   0.94970
H          H       0.39030   0.59490   0.93880
C          C       0.34700   0.57280   0.98160
H          H       0.37840   0.59730   0.99270
C          C       0.29400   0.53750   0.99800
C          C       0.28900   0.53700   0.03090
C          C       0.25000   0.50000   0.04710
H          H       0.25000   0.50000   0.06940
C          C       0.25000   0.50000   0.98170
C          C       0.25000   0.50000   0.94850
C          C       0.38800   0.61790   0.09230
H          H       0.44380   0.61770   0.10970
C          C       0.28970   0.58100   0.05050
C          C       0.36930   0.58070   0.07550
H          H       0.41130   0.55450   0.08110
C          C       0.32800   0.65530   0.08420
C          C       0.24900   0.65570   0.05930
H          H       0.20660   0.68180   0.05370
C          C       0.22940   0.61850   0.04250
H          H       0.17390   0.61860   0.02520
C          C       0.34900   0.69630   0.10210
O          O       0.98100   0.32600   0.79940
O          O       0.80000   0.35050   0.81620
O          O       0.22100   0.27040   0.10050
C          C       0.91600   0.35690   0.81220
C          C       0.91920   0.40160   0.86170
H          H       0.83300   0.39590   0.86440
C          C       0.98200   0.38360   0.83660
C          C       0.98160   0.42790   0.88290
H          H       0.93800   0.44030   0.90010
C          C       0.10720   0.43610   0.87900
C          C       0.17050   0.41810   0.85380
H          H       0.25690   0.42370   0.85110
C          C       0.10800   0.39190   0.83260
H          H       0.15140   0.37960   0.81530
C          C       0.19920   0.46460   0.89890
C          C       0.19920   0.46360   0.93210
C          C       0.14800   0.42850   0.94970
H          H       0.10970   0.40510   0.93880
C          C       0.15300   0.42720   0.98160
H          H       0.12160   0.40270   0.99270
C          C       0.20600   0.46250   0.99800
C          C       0.21100   0.46300   0.03090
C          C       0.11200   0.38210   0.09230
H          H       0.05620   0.38230   0.10970
C          C       0.21030   0.41900   0.05050
C          C       0.13070   0.41930   0.07550
H          H       0.08870   0.44550   0.08110
C          C       0.17200   0.34470   0.08420
C          C       0.25100   0.34430   0.05930
H          H       0.29340   0.31820   0.05370
C          C       0.27060   0.38150   0.04250
H          H       0.32610   0.38140   0.02520
C          C       0.15100   0.30370   0.10210
Zn         Zn      0.61540   0.78980   0.72870
N          N       0.72430   0.75070   0.70440
N          N       0.98940   0.63950   0.67320
H          H       0.01940   0.61320   0.67650
H          H       0.01260   0.65440   0.65660
C          C       0.85070   0.69730   0.69070
N          N       0.87480   0.63270   0.71940
N          N       0.73600   0.68640   0.73680
C          C       0.79030   0.64700   0.74060
H          H       0.76910   0.62920   0.75810
C          C       0.76630   0.71170   0.71190
C          C       0.90500   0.65780   0.69450
C          C       0.78820   0.76050   0.67750
H          H       0.77610   0.78720   0.66660
Zn         Zn      0.88460   0.28980   0.77130
Zn         Zn      0.11540   0.21020   0.77130
Zn         Zn      0.38460   0.78980   0.77130
O          O       0.00000   0.25000   0.75000
O          O       0.51900   0.82600   0.70060
N          N       0.23600   0.31360   0.76320
N          N       0.26400   0.68640   0.76320
N          N       0.77570   0.25070   0.79560
N          N       0.51060   0.13950   0.82680
H          H       0.48060   0.11320   0.82350
H          H       0.48740   0.15440   0.84350
C          C       0.64930   0.19730   0.80930
N          N       0.62520   0.13270   0.78060
N          N       0.76400   0.18640   0.76320
C          C       0.70970   0.14700   0.75940
H          H       0.73090   0.12920   0.74190
C          C       0.73370   0.21170   0.78810
C          C       0.59500   0.15780   0.80550
C          C       0.71180   0.26050   0.82250
H          H       0.72390   0.28720   0.83340
Zn         Zn      0.88460   0.21020   0.72870
N          N       0.77570   0.24930   0.70440
N          N       0.51060   0.36050   0.67320
H          H       0.48060   0.38680   0.67650
H          H       0.48740   0.34560   0.65660
C          C       0.64930   0.30270   0.69070
N          N       0.62520   0.36730   0.71940
N          N       0.76400   0.31360   0.73680
C          C       0.70970   0.35310   0.74060
H          H       0.73090   0.37080   0.75810
C          C       0.73370   0.28840   0.71190
C          C       0.59500   0.34220   0.69450
C          C       0.71180   0.23950   0.67750
H          H       0.72390   0.21280   0.66660
O          O       0.98100   0.17400   0.70060
N          N       0.27570   0.75070   0.79560
N          N       0.01060   0.63950   0.82680
H          H       0.98060   0.61320   0.82350
H          H       0.98740   0.65440   0.84350
C          C       0.14930   0.69730   0.80930
N          N       0.12520   0.63270   0.78060
C          C       0.20970   0.64700   0.75940
H          H       0.23090   0.62920   0.74190
C          C       0.23370   0.71170   0.78810
C          C       0.09500   0.65780   0.80550
C          C       0.21180   0.76050   0.82250
H          H       0.22390   0.78720   0.83340
O          O       0.48100   0.82600   0.79940
N          N       0.22430   0.24930   0.79560
N          N       0.48940   0.36050   0.82680
H          H       0.51940   0.38680   0.82350
H          H       0.51260   0.34560   0.84350
C          C       0.35070   0.30270   0.80930
N          N       0.37480   0.36730   0.78060
C          C       0.29030   0.35310   0.75940
H          H       0.26910   0.37080   0.74190
C          C       0.26630   0.28840   0.78810
C          C       0.40500   0.34220   0.80550
C          C       0.28820   0.23950   0.82250
H          H       0.27610   0.21280   0.83340
O          O       0.01900   0.17400   0.79940
O          O       0.80000   0.14950   0.68380
O          O       0.22100   0.22960   0.39950
C          C       0.91600   0.14310   0.68780
C          C       0.91920   0.09840   0.63830
H          H       0.83300   0.10410   0.63560
C          C       0.98200   0.11640   0.66340
C          C       0.98160   0.07210   0.61710
H          H       0.93800   0.05970   0.59990
C          C       0.10720   0.06390   0.62100
C          C       0.17050   0.08190   0.64620
H          H       0.25690   0.07630   0.64890
C          C       0.10800   0.10810   0.66740
H          H       0.15140   0.12040   0.68470
C          C       0.25000   0.00000   0.61640
H          H       0.25000   0.00000   0.63870
C          C       0.19920   0.03540   0.60110
C          C       0.19920   0.03640   0.56790
C          C       0.14800   0.07150   0.55030
H          H       0.10970   0.09490   0.56120
C          C       0.15300   0.07280   0.51840
H          H       0.12160   0.09730   0.50730
C          C       0.20600   0.03750   0.50200
C          C       0.21100   0.03700   0.46910
C          C       0.25000   0.00000   0.45290
H          H       0.25000   1.00000   0.43060
C          C       0.25000   0.00000   0.51830
C          C       0.25000   0.00000   0.55150
C          C       0.11200   0.11790   0.40770
H          H       0.05620   0.11770   0.39030
C          C       0.21030   0.08100   0.44950
C          C       0.13070   0.08070   0.42450
H          H       0.08870   0.05450   0.41890
C          C       0.17200   0.15530   0.41580
C          C       0.25100   0.15570   0.44070
H          H       0.29340   0.18180   0.44630
C          C       0.27060   0.11850   0.45750
H          H       0.32610   0.11860   0.47480
C          C       0.15100   0.19630   0.39790
O          O       0.70000   0.85050   0.68380
O          O       0.27900   0.77040   0.39950
C          C       0.58400   0.85690   0.68780
C          C       0.58080   0.90160   0.63830
H          H       0.66700   0.89590   0.63560
C          C       0.51800   0.88360   0.66340
C          C       0.51840   0.92790   0.61710
H          H       0.56200   0.94030   0.59990
C          C       0.39280   0.93610   0.62100
C          C       0.32950   0.91810   0.64620
H          H       0.24310   0.92370   0.64890
C          C       0.39200   0.89190   0.66740
H          H       0.34860   0.87960   0.68470
C          C       0.30080   0.96460   0.60110
C          C       0.30080   0.96360   0.56790
C          C       0.35200   0.92850   0.55030
H          H       0.39030   0.90510   0.56120
C          C       0.34700   0.92720   0.51840
H          H       0.37840   0.90270   0.50730
C          C       0.29400   0.96250   0.50200
C          C       0.28900   0.96300   0.46910
C          C       0.38800   0.88210   0.40770
H          H       0.44380   0.88230   0.39030
C          C       0.28970   0.91900   0.44950
C          C       0.36930   0.91930   0.42450
H          H       0.41130   0.94550   0.41890
C          C       0.32800   0.84470   0.41580
C          C       0.24900   0.84430   0.44070
H          H       0.20660   0.81820   0.44630
C          C       0.22940   0.88150   0.45750
H          H       0.17390   0.88140   0.47480
C          C       0.34900   0.80370   0.39790
O          O       0.20000   0.14950   0.81620
O          O       0.77900   0.22960   0.10050
C          C       0.08400   0.14310   0.81220
C          C       0.08080   0.09840   0.86170
H          H       0.16700   0.10410   0.86440
C          C       0.01800   0.11640   0.83660
C          C       0.01840   0.07210   0.88290
H          H       0.06200   0.05970   0.90010
C          C       0.89280   0.06390   0.87900
C          C       0.82950   0.08190   0.85380
H          H       0.74310   0.07630   0.85110
C          C       0.89200   0.10810   0.83260
H          H       0.84860   0.12040   0.81530
C          C       0.75000   0.00000   0.88360
H          H       0.75000   0.00000   0.86130
C          C       0.80080   0.03540   0.89890
C          C       0.80080   0.03640   0.93210
C          C       0.85200   0.07150   0.94970
H          H       0.89030   0.09490   0.93880
C          C       0.84700   0.07280   0.98160
H          H       0.87840   0.09730   0.99270
C          C       0.79400   0.03750   0.99800
C          C       0.78900   0.03700   0.03090
C          C       0.75000   0.00000   0.04710
H          H       0.75000   1.00000   0.06940
C          C       0.75000   0.00000   0.98170
C          C       0.75000   0.00000   0.94850
C          C       0.88800   0.11790   0.09230
H          H       0.94380   0.11770   0.10970
C          C       0.78970   0.08100   0.05050
C          C       0.86930   0.08070   0.07550
H          H       0.91130   0.05450   0.08110
C          C       0.82800   0.15530   0.08420
C          C       0.74900   0.15570   0.05930
H          H       0.70660   0.18180   0.05370
C          C       0.72940   0.11850   0.04250
H          H       0.67390   0.11860   0.02520
C          C       0.84900   0.19630   0.10210
O          O       0.30000   0.85050   0.81620
O          O       0.72100   0.77040   0.10050
C          C       0.41600   0.85690   0.81220
C          C       0.41920   0.90160   0.86170
H          H       0.33300   0.89590   0.86440
C          C       0.48200   0.88360   0.83660
C          C       0.48160   0.92790   0.88290
H          H       0.43800   0.94030   0.90010
C          C       0.60720   0.93610   0.87900
C          C       0.67050   0.91810   0.85380
H          H       0.75690   0.92370   0.85110
C          C       0.60800   0.89190   0.83260
H          H       0.65140   0.87960   0.81530
C          C       0.69920   0.96460   0.89890
C          C       0.69920   0.96360   0.93210
C          C       0.64800   0.92850   0.94970
H          H       0.60970   0.90510   0.93880
C          C       0.65300   0.92720   0.98160
H          H       0.62160   0.90270   0.99270
C          C       0.70600   0.96250   0.99800
C          C       0.71100   0.96300   0.03090
C          C       0.61200   0.88210   0.09230
H          H       0.55620   0.88230   0.10970
C          C       0.71030   0.91900   0.05050
C          C       0.63070   0.91930   0.07550
H          H       0.58870   0.94550   0.08110
C          C       0.67200   0.84470   0.08420
C          C       0.75100   0.84430   0.05930
H          H       0.79340   0.81820   0.05370
C          C       0.77060   0.88150   0.04250
H          H       0.82610   0.88140   0.02520
C          C       0.65100   0.80370   0.10210
