data_crystal

_cell_length_a    21.98300
_cell_length_b    21.98300
_cell_length_c    21.98300
_cell_angle_alpha 90.00000
_cell_angle_beta  90.00000
_cell_angle_gamma 90.00000

_symmetry_space_group_name_Hall 'P 1'
_symmetry_space_group_name_H-M  'P 1'

loop_
_symmetry_equiv_pos_as_xyz
 'x,y,z'

loop_
_atom_site_label
_atom_site_type_symbol
_atom_site_fract_x
_atom_site_fract_y
_atom_site_fract_z
H          H       0.56020   0.57380   0.60110
Zr         Zr      0.38770   0.50000   0.50000
O          O       0.44440   0.44440   0.44440
O          O       0.44420   0.55530   0.44440
O          O       0.58800   0.33830   0.50020
O          O       0.41250   0.33800   0.49970
O          O       0.66170   0.41210   0.50000
O          O       0.33830   0.41220   0.49990
C          C       0.64350   0.35750   0.50030
C          C       0.35800   0.35620   0.49980
C          C       0.94650   0.12950   0.50640
C          C       0.99900   0.15950   0.50100
H          H       0.99860   0.20230   0.50130
C          C       0.05410   0.12950   0.49500
C          C       0.05730   0.06330   0.49610
C          C       0.00020   0.03240   0.49880
C          C       0.94190   0.06530   0.50650
C          C       0.88910   0.03050   0.51240
H          H       0.85190   0.05130   0.51640
C          C       0.88770   0.96890   0.51270
H          H       0.85080   0.94800   0.51860
C          C       0.10980   0.16240   0.49820
C          C       0.15560   0.19410   0.50190
C          C       0.20410   0.23530   0.50190
C          C       0.26310   0.21590   0.49540
H          H       0.27130   0.17440   0.48900
C          C       0.31060   0.25700   0.49810
H          H       0.35110   0.24330   0.49950
C          C       0.29760   0.31840   0.49880
C          C       0.23940   0.34230   0.49790
H          H       0.23150   0.38430   0.49560
C          C       0.19230   0.29780   0.50100
H          H       0.15160   0.31110   0.50240
C          C       0.89150   0.16540   0.49930
C          C       0.84640   0.19450   0.50070
C          C       0.70260   0.31980   0.50110
C          C       0.69030   0.25940   0.50130
H          H       0.64990   0.24540   0.50250
C          C       0.73860   0.21840   0.49970
H          H       0.73110   0.17640   0.49640
C          C       0.79590   0.23910   0.50290
C          C       0.80690   0.30020   0.50140
H          H       0.84720   0.31450   0.50110
C          C       0.75910   0.34130   0.50040
H          H       0.76650   0.38340   0.49910
O          O       0.41200   0.66170   0.49980
O          O       0.58750   0.66200   0.50030
O          O       0.33830   0.58790   0.50000
O          O       0.66170   0.58780   0.50010
C          C       0.35650   0.64250   0.49970
C          C       0.64200   0.64380   0.50020
C          C       0.05350   0.87050   0.49360
C          C       0.00100   0.84050   0.49900
H          H       0.00140   0.79770   0.49870
C          C       0.94590   0.87050   0.50500
C          C       0.94270   0.93670   0.50390
C          C       0.99980   0.96760   0.50120
C          C       0.05810   0.93470   0.49350
C          C       0.11090   0.96950   0.48760
H          H       0.14810   0.94870   0.48360
C          C       0.11230   0.03110   0.48730
H          H       0.14920   0.05200   0.48140
C          C       0.89020   0.83760   0.50180
C          C       0.84440   0.80590   0.49810
C          C       0.79590   0.76470   0.49810
C          C       0.73690   0.78410   0.50460
H          H       0.72870   0.82560   0.51100
C          C       0.68940   0.74300   0.50190
H          H       0.64890   0.75670   0.50050
C          C       0.70240   0.68160   0.50120
C          C       0.76060   0.65770   0.50210
H          H       0.76850   0.61570   0.50440
C          C       0.80770   0.70220   0.49900
H          H       0.84840   0.68890   0.49760
C          C       0.10850   0.83460   0.50070
C          C       0.15360   0.80550   0.49930
C          C       0.29740   0.68020   0.49890
C          C       0.30970   0.74060   0.49870
H          H       0.35010   0.75460   0.49750
C          C       0.26140   0.78160   0.50030
H          H       0.26890   0.82360   0.50360
C          C       0.20410   0.76090   0.49710
C          C       0.19310   0.69980   0.49860
H          H       0.15280   0.68550   0.49890
C          C       0.24090   0.65870   0.49960
H          H       0.23350   0.61660   0.50090
Zr         Zr      0.50000   0.38770   0.50000
O          O       0.44440   0.44420   0.55530
O          O       0.50020   0.58800   0.33830
O          O       0.49970   0.41250   0.33800
O          O       0.50000   0.66170   0.41210
O          O       0.49990   0.33830   0.41220
C          C       0.50030   0.64350   0.35750
C          C       0.49980   0.35800   0.35620
C          C       0.50640   0.94650   0.12950
C          C       0.50100   0.99900   0.15950
H          H       0.50130   0.99860   0.20230
C          C       0.49500   0.05410   0.12950
C          C       0.49610   0.05730   0.06330
C          C       0.49880   0.00020   0.03240
C          C       0.50650   0.94190   0.06530
C          C       0.51240   0.88910   0.03050
H          H       0.51640   0.85190   0.05130
C          C       0.51270   0.88770   0.96890
H          H       0.51860   0.85080   0.94800
C          C       0.49820   0.10980   0.16240
C          C       0.50190   0.15560   0.19410
C          C       0.50190   0.20410   0.23530
C          C       0.49540   0.26310   0.21590
H          H       0.48900   0.27130   0.17440
C          C       0.49810   0.31060   0.25700
H          H       0.49950   0.35110   0.24330
C          C       0.49880   0.29760   0.31840
C          C       0.49790   0.23940   0.34230
H          H       0.49560   0.23150   0.38430
C          C       0.50100   0.19230   0.29780
H          H       0.50240   0.15160   0.31110
C          C       0.49930   0.89150   0.16540
C          C       0.50070   0.84640   0.19450
C          C       0.50110   0.70260   0.31980
C          C       0.50130   0.69030   0.25940
H          H       0.50250   0.64990   0.24540
C          C       0.49970   0.73860   0.21840
H          H       0.49640   0.73110   0.17640
C          C       0.50290   0.79590   0.23910
C          C       0.50140   0.80690   0.30020
H          H       0.50110   0.84720   0.31450
C          C       0.50040   0.75910   0.34130
H          H       0.49910   0.76650   0.38340
O          O       0.49980   0.41200   0.66170
O          O       0.50030   0.58750   0.66200
O          O       0.50000   0.33830   0.58790
O          O       0.50010   0.66170   0.58780
C          C       0.49970   0.35650   0.64250
C          C       0.50020   0.64200   0.64380
C          C       0.49360   0.05350   0.87050
C          C       0.49900   0.00100   0.84050
H          H       0.49870   0.00140   0.79770
C          C       0.50500   0.94590   0.87050
C          C       0.50390   0.94270   0.93670
C          C       0.50120   0.99980   0.96760
C          C       0.49350   0.05810   0.93470
C          C       0.48760   0.11090   0.96950
H          H       0.48360   0.14810   0.94870
C          C       0.48730   0.11230   0.03110
H          H       0.48140   0.14920   0.05200
C          C       0.50180   0.89020   0.83760
C          C       0.49810   0.84440   0.80590
C          C       0.49810   0.79590   0.76470
C          C       0.50460   0.73690   0.78410
H          H       0.51100   0.72870   0.82560
C          C       0.50190   0.68940   0.74300
H          H       0.50050   0.64890   0.75670
C          C       0.50120   0.70240   0.68160
C          C       0.50210   0.76060   0.65770
H          H       0.50440   0.76850   0.61570
C          C       0.49900   0.80770   0.70220
H          H       0.49760   0.84840   0.68890
C          C       0.50070   0.10850   0.83460
C          C       0.49930   0.15360   0.80550
C          C       0.49890   0.29740   0.68020
C          C       0.49870   0.30970   0.74060
H          H       0.49750   0.35010   0.75460
C          C       0.50030   0.26140   0.78160
H          H       0.50360   0.26890   0.82360
C          C       0.49710   0.20410   0.76090
C          C       0.49860   0.19310   0.69980
H          H       0.49890   0.15280   0.68550
C          C       0.49960   0.24090   0.65870
H          H       0.50090   0.23350   0.61660
Zr         Zr      0.50000   0.50000   0.38770
O          O       0.55530   0.44440   0.44420
O          O       0.33830   0.50020   0.58800
O          O       0.33800   0.49970   0.41250
O          O       0.41210   0.50000   0.66170
O          O       0.41220   0.49990   0.33830
C          C       0.35750   0.50030   0.64350
C          C       0.35620   0.49980   0.35800
C          C       0.12950   0.50640   0.94650
C          C       0.15950   0.50100   0.99900
H          H       0.20230   0.50130   0.99860
C          C       0.12950   0.49500   0.05410
C          C       0.06330   0.49610   0.05730
C          C       0.03240   0.49880   0.00020
C          C       0.06530   0.50650   0.94190
C          C       0.03050   0.51240   0.88910
H          H       0.05130   0.51640   0.85190
C          C       0.96890   0.51270   0.88770
H          H       0.94800   0.51860   0.85080
C          C       0.16240   0.49820   0.10980
C          C       0.19410   0.50190   0.15560
C          C       0.23530   0.50190   0.20410
C          C       0.21590   0.49540   0.26310
H          H       0.17440   0.48900   0.27130
C          C       0.25700   0.49810   0.31060
H          H       0.24330   0.49950   0.35110
C          C       0.31840   0.49880   0.29760
C          C       0.34230   0.49790   0.23940
H          H       0.38430   0.49560   0.23150
C          C       0.29780   0.50100   0.19230
H          H       0.31110   0.50240   0.15160
C          C       0.16540   0.49930   0.89150
C          C       0.19450   0.50070   0.84640
C          C       0.31980   0.50110   0.70260
C          C       0.25940   0.50130   0.69030
H          H       0.24540   0.50250   0.64990
C          C       0.21840   0.49970   0.73860
H          H       0.17640   0.49640   0.73110
C          C       0.23910   0.50290   0.79590
C          C       0.30020   0.50140   0.80690
H          H       0.31450   0.50110   0.84720
C          C       0.34130   0.50040   0.75910
H          H       0.38340   0.49910   0.76650
O          O       0.66170   0.49980   0.41200
O          O       0.66200   0.50030   0.58750
O          O       0.58790   0.50000   0.33830
O          O       0.58780   0.50010   0.66170
C          C       0.64250   0.49970   0.35650
C          C       0.64380   0.50020   0.64200
C          C       0.87050   0.49360   0.05350
C          C       0.84050   0.49900   0.00100
H          H       0.79770   0.49870   0.00140
C          C       0.87050   0.50500   0.94590
C          C       0.93670   0.50390   0.94270
C          C       0.96760   0.50120   0.99980
C          C       0.93470   0.49350   0.05810
C          C       0.96950   0.48760   0.11090
H          H       0.94870   0.48360   0.14810
C          C       0.03110   0.48730   0.11230
H          H       0.05200   0.48140   0.14920
C          C       0.83760   0.50180   0.89020
C          C       0.80590   0.49810   0.84440
C          C       0.76470   0.49810   0.79590
C          C       0.78410   0.50460   0.73690
H          H       0.82560   0.51100   0.72870
C          C       0.74300   0.50190   0.68940
H          H       0.75670   0.50050   0.64890
C          C       0.68160   0.50120   0.70240
C          C       0.65770   0.50210   0.76060
H          H       0.61570   0.50440   0.76850
C          C       0.70220   0.49900   0.80770
H          H       0.68890   0.49760   0.84840
C          C       0.83460   0.50070   0.10850
C          C       0.80550   0.49930   0.15360
C          C       0.68020   0.49890   0.29740
C          C       0.74060   0.49870   0.30970
H          H       0.75460   0.49750   0.35010
C          C       0.78160   0.50030   0.26140
H          H       0.82360   0.50360   0.26890
C          C       0.76090   0.49710   0.20410
C          C       0.69980   0.49860   0.19310
H          H       0.68550   0.49890   0.15280
C          C       0.65870   0.49960   0.24090
H          H       0.61660   0.50090   0.23350
Zr         Zr      0.61230   0.50000   0.50000
O          O       0.55560   0.55560   0.55560
O          O       0.55580   0.44470   0.55560
Zr         Zr      0.50000   0.50000   0.61230
O          O       0.44470   0.55560   0.55580
Zr         Zr      0.50000   0.61230   0.50000
O          O       0.55560   0.55580   0.44470
H          H       0.43990   0.41870   0.59630
H          H       0.56900   0.40800   0.43510
H          H       0.41870   0.59630   0.43990
