data_block_1
_audit_creation_date         'Wed Sep  9 16:34:34 2020'
_audit_creation_method       'generated by GDIS v0.91'


_cell_length_a             15.0920
_cell_length_b             15.0920
_cell_length_c             98.4940
_cell_angle_alpha          90.00
_cell_angle_beta           90.00
_cell_angle_gamma          90.00


_symmetry_space_group_name_H-M   'P 1'
_symmetry_Int_Tables_number       1


loop_
_atom_site_label
_atom_site_fract_x
_atom_site_fract_y
_atom_site_fract_z
Zr    0.4970    0.9957    0.3491
 O    0.5961    0.9957    0.3633
 O    0.4970    0.8585    0.3600
 O    0.5856    0.9104    0.3380
Zr    0.6142    0.8785    0.3737
 C    0.6518    0.8638    0.3410
 O    0.6721    0.8438    0.3532
 O    0.6126    0.7349    0.3723
 C    0.7089    0.8256    0.3302
 C    0.7826    0.7793    0.3319
 C    0.6823    0.8421    0.3165
 C    0.8360    0.7695    0.3203
 C    0.7337    0.8237    0.3060
 C    0.8082    0.7835    0.3080
 C    0.8652    0.7683    0.2970
 C    0.9002    0.7522    0.2864
 C    0.9521    0.7324    0.2732
 C    0.9058    0.7415    0.2610
 C    0.8120    0.7411    0.2612
 C    0.7592    0.7462    0.2487
 C    0.6552    0.7462    0.2487
 C    0.6300    0.8176    0.2590
 C    0.6285    0.7751    0.2348
 C    0.9515    0.7462    0.2487
 O    0.5856    0.5810    0.1595
 C    0.6518    0.6276    0.1565
 O    0.6721    0.6476    0.1443
 C    0.7089    0.6658    0.1673
 C    0.7826    0.7121    0.1656
 C    0.6823    0.6493    0.1810
 C    0.8360    0.7219    0.1772
 C    0.7337    0.6677    0.1915
 C    0.8082    0.7079    0.1895
 C    0.8652    0.7231    0.2005
 C    0.9002    0.7392    0.2111
 C    0.9521    0.7590    0.2242
 C    0.9058    0.7499    0.2365
 C    0.8120    0.7503    0.2363
 C    0.7592    0.7452    0.2488
 C    0.6552    0.7452    0.2488
 C    0.6313    0.6457    0.2481
 C    0.9515    0.7452    0.2488
 O    0.4084    0.5810    0.1595
 C    0.3422    0.6276    0.1565
 O    0.3219    0.6476    0.1443
 C    0.2851    0.6658    0.1673
 C    0.2114    0.7121    0.1656
 C    0.3117    0.6493    0.1810
 C    0.1580    0.7219    0.1772
 C    0.2603    0.6677    0.1915
 C    0.1858    0.7079    0.1895
 C    0.1288    0.7231    0.2005
 C    0.0938    0.7392    0.2111
 C    0.0419    0.7590    0.2242
 C    0.0882    0.7499    0.2365
 C    0.1820    0.7503    0.2363
 C    0.2348    0.7452    0.2488
 C    0.3388    0.7452    0.2488
 C    0.3627    0.6457    0.2481
 C    0.0425    0.7452    0.2488
 O    0.4084    0.9104    0.3380
 C    0.3422    0.8638    0.3410
 O    0.3219    0.8438    0.3532
 C    0.2851    0.8256    0.3302
 C    0.2114    0.7793    0.3319
 C    0.3117    0.8421    0.3165
 C    0.1580    0.7695    0.3203
 C    0.2603    0.8237    0.3060
 C    0.1858    0.7835    0.3080
 C    0.1288    0.7683    0.2970
 C    0.0938    0.7522    0.2864
 C    0.0419    0.7324    0.2732
 C    0.0882    0.7415    0.2610
 C    0.1820    0.7411    0.2612
 C    0.2348    0.7462    0.2487
 C    0.3388    0.7462    0.2487
 C    0.3640    0.8176    0.2590
 C    0.3655    0.7751    0.2348
 C    0.0425    0.7462    0.2487
 O    0.3979    0.9957    0.3633
 O    0.4970    0.1329    0.3600
Zr    0.3797    0.1129    0.3737
 O    0.2362    0.1113    0.3752
 O    0.7578    0.8801    0.3752
Zr    0.4970    0.4957    0.1484
 O    0.4970    0.0948    0.3842
 O    0.4970    0.8966    0.3842
 O    0.3598    0.9957    0.3875
 O    0.6342    0.9957    0.3875
 O    0.4084    0.0810    0.3380
 O    0.5856    0.0810    0.3380
Zr    0.6142    0.6129    0.1237
Zr    0.3797    0.6129    0.1237
Zr    0.6142    0.1129    0.3737
Zr    0.3797    0.8785    0.3737
 O    0.3219    0.1476    0.3532
 O    0.3451    0.1708    0.3943
 O    0.6489    0.8206    0.3943
Zr    0.9970    0.9957    0.5991
 O    0.9970    0.0948    0.6133
 O    0.1342    0.9957    0.6100
 O    0.0823    0.0843    0.5880
Zr    0.1142    0.1129    0.6237
 C    0.1289    0.1505    0.5910
 O    0.1489    0.1708    0.6032
 O    0.2578    0.1113    0.6223
 C    0.1671    0.2076    0.5802
 C    0.2134    0.2813    0.5819
 C    0.1506    0.1810    0.5665
 C    0.2232    0.3347    0.5703
 C    0.1690    0.2324    0.5560
 C    0.2092    0.3069    0.5580
 C    0.2244    0.3639    0.5470
 C    0.2405    0.3989    0.5364
 C    0.2603    0.4508    0.5232
 C    0.2512    0.4045    0.5110
 C    0.2516    0.3107    0.5112
 C    0.2465    0.2579    0.4987
 C    0.2465    0.4502    0.4987
 O    0.4117    0.0843    0.4095
 C    0.3651    0.1505    0.4065
 C    0.3269    0.2076    0.4173
 C    0.2806    0.2813    0.4156
 C    0.3434    0.1810    0.4310
 C    0.2708    0.3347    0.4272
 C    0.3250    0.2324    0.4415
 C    0.2848    0.3069    0.4395
 C    0.2696    0.3639    0.4505
 C    0.2535    0.3989    0.4611
 C    0.2337    0.4508    0.4742
 C    0.2428    0.4045    0.4865
 C    0.2424    0.3107    0.4863
 C    0.2475    0.2579    0.4988
 C    0.2475    0.4502    0.4988
 O    0.4117    0.9071    0.4095
 C    0.3651    0.8409    0.4065
 O    0.3451    0.8206    0.3943
 C    0.3269    0.7838    0.4173
 C    0.2806    0.7101    0.4156
 C    0.3434    0.8104    0.4310
 C    0.2708    0.6567    0.4272
 C    0.3250    0.7590    0.4415
 C    0.2848    0.6845    0.4395
 C    0.2696    0.6275    0.4505
 C    0.2535    0.5925    0.4611
 C    0.2337    0.5406    0.4742
 C    0.2428    0.5869    0.4865
 C    0.2424    0.6807    0.4863
 C    0.2475    0.7335    0.4988
 C    0.2475    0.8375    0.4988
 C    0.3470    0.8614    0.4981
 C    0.2475    0.5412    0.4988
 O    0.0823    0.9071    0.5880
 C    0.1289    0.8409    0.5910
 O    0.1489    0.8206    0.6032
 C    0.1671    0.7838    0.5802
 C    0.2134    0.7101    0.5819
 C    0.1506    0.8104    0.5665
 C    0.2232    0.6567    0.5703
 C    0.1690    0.7590    0.5560
 C    0.2092    0.6845    0.5580
 C    0.2244    0.6275    0.5470
 C    0.2405    0.5925    0.5364
 C    0.2603    0.5406    0.5232
 C    0.2512    0.5869    0.5110
 C    0.2516    0.6807    0.5112
 C    0.2465    0.7335    0.4987
 C    0.2465    0.8375    0.4987
 C    0.1751    0.8627    0.5090
 C    0.2176    0.8642    0.4848
 C    0.2465    0.5412    0.4987
 O    0.9970    0.8966    0.6133
 O    0.8598    0.9957    0.6100
Zr    0.8797    0.8785    0.6237
 O    0.7362    0.8801    0.6223
 O    0.8814    0.7349    0.6252
Zr    0.4970    0.9957    0.3984
 O    0.8979    0.9957    0.6342
 O    0.0961    0.9957    0.6342
 O    0.9970    0.8585    0.6375
 O    0.9970    0.1329    0.6375
 O    0.9117    0.9071    0.5880
 O    0.9117    0.0843    0.5880
Zr    0.8797    0.1129    0.6237
Zr    0.1142    0.8785    0.6237
 O    0.8451    0.8206    0.6032
 O    0.8219    0.8438    0.6443
 O    0.1721    0.1476    0.6443
 C    0.3422    0.1276    0.3410
 C    0.2851    0.1658    0.3302
 C    0.2114    0.2121    0.3319
 C    0.3117    0.1493    0.3165
 C    0.1580    0.2219    0.3203
 C    0.2603    0.1677    0.3060
 C    0.1858    0.2079    0.3080
 C    0.1288    0.2231    0.2970
 C    0.0938    0.2392    0.2864
 O    0.4084    0.4104    0.1595
 C    0.3422    0.3638    0.1565
 O    0.3219    0.3438    0.1443
 C    0.2851    0.3256    0.1673
 C    0.2114    0.2793    0.1656
 C    0.3117    0.3421    0.1810
 C    0.1580    0.2695    0.1772
 C    0.2603    0.3237    0.1915
 C    0.1858    0.2835    0.1895
 C    0.1288    0.2683    0.2005
 C    0.0938    0.2522    0.2111
 O    0.5856    0.4104    0.1595
 C    0.6518    0.3638    0.1565
 O    0.6721    0.3438    0.1443
 C    0.7089    0.3256    0.1673
 C    0.7826    0.2793    0.1656
 C    0.6823    0.3421    0.1810
 C    0.8360    0.2695    0.1772
 C    0.7337    0.3237    0.1915
 C    0.8082    0.2835    0.1895
 C    0.8652    0.2683    0.2005
 C    0.9002    0.2522    0.2111
 C    0.6518    0.1276    0.3410
 O    0.6721    0.1476    0.3532
 C    0.7089    0.1658    0.3302
 C    0.7826    0.2121    0.3319
 C    0.6823    0.1493    0.3165
 C    0.8360    0.2219    0.3203
 C    0.7337    0.1677    0.3060
 C    0.8082    0.2079    0.3080
 C    0.8652    0.2231    0.2970
 C    0.9002    0.2392    0.2864
Zr    0.3797    0.3785    0.1237
Zr    0.6142    0.3785    0.1237
Zr    0.4970    0.4957    0.0991
 O    0.4970    0.3966    0.1133
 O    0.3598    0.4957    0.1100
 O    0.4117    0.4071    0.0880
 C    0.3651    0.3409    0.0910
 O    0.3451    0.3206    0.1032
 O    0.2362    0.3801    0.1223
 C    0.3269    0.2838    0.0802
 C    0.2806    0.2101    0.0819
 C    0.3434    0.3104    0.0665
 C    0.2708    0.1567    0.0703
 C    0.3250    0.2590    0.0560
 C    0.2848    0.1845    0.0580
 C    0.2696    0.1275    0.0470
 C    0.2535    0.0925    0.0364
 C    0.2337    0.0406    0.0232
 C    0.2428    0.0869    0.0110
 C    0.2424    0.1807    0.0112
 C    0.2475    0.2335    0.9987
 C    0.2475    0.0412    0.9987
 O    0.0823    0.4071    0.9095
 C    0.1289    0.3409    0.9065
 O    0.1489    0.3206    0.8943
 C    0.1671    0.2838    0.9173
 C    0.2134    0.2101    0.9156
 C    0.1506    0.3104    0.9310
 C    0.2232    0.1567    0.9272
 C    0.1690    0.2590    0.9415
 C    0.2092    0.1845    0.9395
 C    0.2244    0.1275    0.9505
 C    0.2405    0.0925    0.9611
 C    0.2603    0.0406    0.9742
 C    0.2512    0.0869    0.9865
 C    0.2516    0.1807    0.9863
 C    0.2465    0.2335    0.9988
 C    0.2465    0.0412    0.9988
 O    0.0823    0.5843    0.9095
 C    0.1289    0.6505    0.9065
 O    0.1489    0.6708    0.8943
 C    0.1671    0.7076    0.9173
 C    0.2134    0.7813    0.9156
 C    0.1506    0.6810    0.9310
 C    0.2232    0.8347    0.9272
 C    0.1690    0.7324    0.9415
 C    0.2092    0.8069    0.9395
 C    0.2244    0.8639    0.9505
 C    0.2405    0.8989    0.9611
 C    0.2603    0.9508    0.9742
 C    0.2512    0.9045    0.9865
 C    0.2516    0.8107    0.9863
 C    0.2465    0.7579    0.9988
 C    0.2465    0.6539    0.9988
 C    0.1470    0.6300    0.9981
 C    0.2465    0.9502    0.9988
 O    0.4117    0.5843    0.0880
 C    0.3651    0.6505    0.0910
 O    0.3451    0.6708    0.1032
 C    0.3269    0.7076    0.0802
 C    0.2806    0.7813    0.0819
 C    0.3434    0.6810    0.0665
 C    0.2708    0.8347    0.0703
 C    0.3250    0.7324    0.0560
 C    0.2848    0.8069    0.0580
 C    0.2696    0.8639    0.0470
 C    0.2535    0.8989    0.0364
 C    0.2337    0.9508    0.0232
 C    0.2428    0.9045    0.0110
 C    0.2424    0.8107    0.0112
 C    0.2475    0.7579    0.9987
 C    0.2475    0.6539    0.9987
 C    0.2764    0.6272    0.9848
 C    0.2475    0.9502    0.9987
 O    0.4970    0.5948    0.1133
 O    0.6342    0.4957    0.1100
 O    0.7578    0.6113    0.1223
 O    0.6126    0.7565    0.1252
Zr    0.9970    0.4957    0.8984
 O    0.5961    0.4957    0.1342
 O    0.3979    0.4957    0.1342
 O    0.4970    0.6329    0.1375
 O    0.4970    0.3585    0.1375
 O    0.5823    0.5843    0.0880
 O    0.5823    0.4071    0.0880
Zr    0.1142    0.3785    0.8737
Zr    0.1142    0.6129    0.8737
 O    0.6489    0.6708    0.1032
 O    0.5823    0.9071    0.4095
 O    0.5823    0.0843    0.4095
 O    0.9970    0.3966    0.8842
 O    0.1342    0.4957    0.8875
 O    0.2578    0.3801    0.8752
 O    0.9970    0.5948    0.8842
 O    0.8598    0.4957    0.8875
Zr    0.8797    0.6129    0.8737
 O    0.7362    0.6113    0.8752
 O    0.8814    0.7565    0.8723
 O    0.8979    0.4957    0.8633
 O    0.0961    0.4957    0.8633
 O    0.9970    0.6329    0.8600
 O    0.9970    0.3585    0.8600
 O    0.9117    0.5843    0.9095
 O    0.9117    0.4071    0.9095
Zr    0.8797    0.3785    0.8737
 O    0.8451    0.6708    0.8943
 O    0.8219    0.6476    0.8532
 O    0.1721    0.3438    0.8532
Zr    0.9970    0.4957    0.8491
 O    0.0856    0.4104    0.8380
 C    0.1518    0.3638    0.8410
 C    0.2089    0.3256    0.8302
 C    0.2826    0.2793    0.8319
 C    0.1823    0.3421    0.8165
 C    0.3360    0.2695    0.8203
 C    0.2337    0.3237    0.8060
 C    0.3082    0.2835    0.8080
 C    0.3652    0.2683    0.7970
 C    0.4002    0.2522    0.7864
 O    0.0856    0.0810    0.6595
 C    0.1518    0.1276    0.6565
 C    0.2089    0.1658    0.6673
 C    0.2826    0.2121    0.6656
 C    0.1823    0.1493    0.6810
 C    0.3360    0.2219    0.6772
 C    0.2337    0.1677    0.6915
 C    0.3082    0.2079    0.6895
 C    0.3652    0.2231    0.7005
 C    0.4002    0.2392    0.7111
 O    0.9084    0.0810    0.6595
 C    0.8422    0.1276    0.6565
 O    0.8219    0.1476    0.6443
 C    0.7851    0.1658    0.6673
 C    0.7114    0.2121    0.6656
 C    0.8117    0.1493    0.6810
 C    0.6580    0.2219    0.6772
 C    0.7603    0.1677    0.6915
 C    0.6858    0.2079    0.6895
 C    0.6288    0.2231    0.7005
 C    0.5938    0.2392    0.7111
 O    0.9084    0.4104    0.8380
 C    0.8422    0.3638    0.8410
 O    0.8219    0.3438    0.8532
 C    0.7851    0.3256    0.8302
 C    0.7114    0.2793    0.8319
 C    0.8117    0.3421    0.8165
 C    0.6580    0.2695    0.8203
 C    0.7603    0.3237    0.8060
 C    0.6858    0.2835    0.8080
 C    0.6288    0.2683    0.7970
 C    0.5938    0.2522    0.7864
Zr    0.9970    0.9957    0.6484
 O    0.9084    0.5810    0.8380
 O    0.0856    0.5810    0.8380
 C    0.6289    0.6505    0.0910
 C    0.6671    0.7076    0.0802
 C    0.7134    0.7813    0.0819
 C    0.6506    0.6810    0.0665
 C    0.7232    0.8347    0.0703
 C    0.6690    0.7324    0.0560
 C    0.7092    0.8069    0.0580
 C    0.7244    0.8639    0.0470
 C    0.7405    0.8989    0.0364
 C    0.7603    0.9508    0.0232
 C    0.7512    0.9045    0.0110
 C    0.7516    0.8107    0.0112
 C    0.7465    0.7579    0.9987
 C    0.7465    0.6539    0.9987
 C    0.6470    0.6300    0.9994
 C    0.7465    0.9502    0.9987
 C    0.8651    0.6505    0.9065
 C    0.8269    0.7076    0.9173
 C    0.7806    0.7813    0.9156
 C    0.8434    0.6810    0.9310
 C    0.7708    0.8347    0.9272
 C    0.8250    0.7324    0.9415
 C    0.7848    0.8069    0.9395
 C    0.7696    0.8639    0.9505
 C    0.7535    0.8989    0.9611
 C    0.7337    0.9508    0.9742
 C    0.7428    0.9045    0.9865
 C    0.7424    0.8107    0.9863
 C    0.7475    0.7579    0.9988
 C    0.7475    0.6539    0.9988
 C    0.8189    0.6287    0.9885
 C    0.7475    0.9502    0.9988
 C    0.8651    0.3409    0.9065
 O    0.8451    0.3206    0.8943
 C    0.8269    0.2838    0.9173
 C    0.7806    0.2101    0.9156
 C    0.8434    0.3104    0.9310
 C    0.7708    0.1567    0.9272
 C    0.8250    0.2590    0.9415
 C    0.7848    0.1845    0.9395
 C    0.7696    0.1275    0.9505
 C    0.7535    0.0925    0.9611
 C    0.7337    0.0406    0.9742
 C    0.7428    0.0869    0.9865
 C    0.7424    0.1807    0.9863
 C    0.7475    0.2335    0.9988
 C    0.7475    0.0412    0.9988
 C    0.6289    0.3409    0.0910
 O    0.6489    0.3206    0.1032
 C    0.6671    0.2838    0.0802
 C    0.7134    0.2101    0.0819
 C    0.6506    0.3104    0.0665
 C    0.7232    0.1567    0.0703
 C    0.6690    0.2590    0.0560
 C    0.7092    0.1845    0.0580
 C    0.7244    0.1275    0.0470
 C    0.7405    0.0925    0.0364
 C    0.7603    0.0406    0.0232
 C    0.7512    0.0869    0.0110
 C    0.7516    0.1807    0.0112
 C    0.7465    0.2335    0.9987
 C    0.7465    0.0412    0.9987
 C    0.8422    0.6276    0.8410
 C    0.7851    0.6658    0.8302
 C    0.7114    0.7121    0.8319
 C    0.8117    0.6493    0.8165
 C    0.6580    0.7219    0.8203
 C    0.7603    0.6677    0.8060
 C    0.6858    0.7079    0.8080
 C    0.6288    0.7231    0.7970
 C    0.5938    0.7392    0.7864
 C    0.5419    0.7590    0.7732
 C    0.5882    0.7499    0.7610
 C    0.6820    0.7503    0.7612
 C    0.7348    0.7452    0.7487
 C    0.8388    0.7452    0.7487
 C    0.8640    0.6738    0.7590
 C    0.8655    0.7163    0.7348
 C    0.5425    0.7452    0.7487
 O    0.9084    0.9104    0.6595
 C    0.8422    0.8638    0.6565
 C    0.7851    0.8256    0.6673
 C    0.7114    0.7793    0.6656
 C    0.8117    0.8421    0.6810
 C    0.6580    0.7695    0.6772
 C    0.7603    0.8237    0.6915
 C    0.6858    0.7835    0.6895
 C    0.6288    0.7683    0.7005
 C    0.5938    0.7522    0.7111
 C    0.5419    0.7324    0.7242
 C    0.5882    0.7415    0.7365
 C    0.6820    0.7411    0.7363
 C    0.7348    0.7462    0.7488
 C    0.8388    0.7462    0.7488
 C    0.8627    0.8457    0.7481
 C    0.5425    0.7462    0.7488
 O    0.0856    0.9104    0.6595
 C    0.1518    0.8638    0.6565
 O    0.1721    0.8438    0.6443
 C    0.2089    0.8256    0.6673
 C    0.2826    0.7793    0.6656
 C    0.1823    0.8421    0.6810
 C    0.3360    0.7695    0.6772
 C    0.2337    0.8237    0.6915
 C    0.3082    0.7835    0.6895
 C    0.3652    0.7683    0.7005
 C    0.4002    0.7522    0.7111
 C    0.4521    0.7324    0.7242
 C    0.4058    0.7415    0.7365
 C    0.3120    0.7411    0.7363
 C    0.2592    0.7462    0.7488
 C    0.1552    0.7462    0.7488
 C    0.1313    0.8457    0.7481
 C    0.4515    0.7462    0.7488
 C    0.1518    0.6276    0.8410
 O    0.1721    0.6476    0.8532
 C    0.2089    0.6658    0.8302
 C    0.2826    0.7121    0.8319
 C    0.1823    0.6493    0.8165
 C    0.3360    0.7219    0.8203
 C    0.2337    0.6677    0.8060
 C    0.3082    0.7079    0.8080
 C    0.3652    0.7231    0.7970
 C    0.4002    0.7392    0.7864
 C    0.4521    0.7590    0.7732
 C    0.4058    0.7499    0.7610
 C    0.3120    0.7503    0.7612
 C    0.2592    0.7452    0.7487
 C    0.1552    0.7452    0.7487
 C    0.1300    0.6738    0.7590
 C    0.1285    0.7163    0.7348
 C    0.4515    0.7452    0.7487
 C    0.8651    0.8409    0.5910
 C    0.8269    0.7838    0.5802
 C    0.7806    0.7101    0.5819
 C    0.8434    0.8104    0.5665
 C    0.7708    0.6567    0.5703
 C    0.8250    0.7590    0.5560
 C    0.7848    0.6845    0.5580
 C    0.7696    0.6275    0.5470
 C    0.7535    0.5925    0.5364
 C    0.7337    0.5406    0.5232
 C    0.7428    0.5869    0.5110
 C    0.7424    0.6807    0.5112
 C    0.7475    0.7335    0.4987
 C    0.7475    0.8375    0.4987
 C    0.8189    0.8627    0.5090
 C    0.7764    0.8642    0.4848
 C    0.7475    0.5412    0.4987
 C    0.6289    0.8409    0.4065
 C    0.6671    0.7838    0.4173
 C    0.7134    0.7101    0.4156
 C    0.6506    0.8104    0.4310
 C    0.7232    0.6567    0.4272
 C    0.6690    0.7590    0.4415
 C    0.7092    0.6845    0.4395
 C    0.7244    0.6275    0.4505
 C    0.7405    0.5925    0.4611
 C    0.7603    0.5406    0.4742
 C    0.7512    0.5869    0.4865
 C    0.7516    0.6807    0.4863
 C    0.7465    0.7335    0.4988
 C    0.7465    0.8375    0.4988
 C    0.6470    0.8614    0.4981
 C    0.7465    0.5412    0.4988
 C    0.6289    0.1505    0.4065
 O    0.6489    0.1708    0.3943
 C    0.6671    0.2076    0.4173
 C    0.7134    0.2813    0.4156
 C    0.6506    0.1810    0.4310
 C    0.7232    0.3347    0.4272
 C    0.6690    0.2324    0.4415
 C    0.7092    0.3069    0.4395
 C    0.7244    0.3639    0.4505
 C    0.7405    0.3989    0.4611
 C    0.7603    0.4508    0.4742
 C    0.7512    0.4045    0.4865
 C    0.7516    0.3107    0.4863
 C    0.7465    0.2579    0.4988
 C    0.7465    0.4502    0.4988
 C    0.8651    0.1505    0.5910
 O    0.8451    0.1708    0.6032
 C    0.8269    0.2076    0.5802
 C    0.7806    0.2813    0.5819
 C    0.8434    0.1810    0.5665
 C    0.7708    0.3347    0.5703
 C    0.8250    0.2324    0.5560
 C    0.7848    0.3069    0.5580
 C    0.7696    0.3639    0.5470
 C    0.7535    0.3989    0.5364
 C    0.7337    0.4508    0.5232
 C    0.7428    0.4045    0.5110
 C    0.7424    0.3107    0.5112
 C    0.7475    0.2579    0.4987
 C    0.7475    0.4502    0.4987
 O    0.3814    0.7565    0.1252
 O    0.7578    0.3801    0.1223
 O    0.2362    0.6113    0.1223
 O    0.7362    0.3801    0.8752
 O    0.2578    0.6113    0.8752
 O    0.1126    0.7565    0.8723
 O    0.7578    0.1113    0.3752
 O    0.2362    0.8801    0.3752
 O    0.3814    0.7349    0.3723
 O    0.7362    0.1113    0.6223
 O    0.2578    0.8801    0.6223
 O    0.1126    0.7349    0.6252
 H    0.7452    0.7145    0.5210
 H    0.7487    0.7145    0.4765
 H    0.7452    0.2769    0.5210
 H    0.7487    0.2769    0.4765
 H    0.2487    0.7145    0.5210
 H    0.2487    0.2769    0.5210
 H    0.2452    0.2769    0.4765
 H    0.2452    0.7145    0.4765
 H    0.7487    0.2145    0.0210
 H    0.2452    0.2145    0.0210
 H    0.2487    0.2145    0.9765
 H    0.7487    0.7769    0.0210
 H    0.2452    0.7769    0.0210
 H    0.2487    0.7769    0.9765
 H    0.7452    0.7769    0.9765
 H    0.7452    0.2145    0.9765
 H    0.7922    0.7979    0.2673
 H    0.7519    0.6919    0.5917
 H    0.7502    0.5881    0.5716
 H    0.8722    0.8754    0.5646
 H    0.8434    0.7791    0.5457
 H    0.8767    0.8709    0.6829
 H    0.6932    0.7507    0.6558
 H    0.5894    0.7490    0.6758
 H    0.7804    0.8421    0.7017
 H    0.1217    0.8754    0.5646
 H    0.1505    0.7791    0.5457
 H    0.2437    0.5881    0.5716
 H    0.2420    0.6919    0.5917
 H    0.2502    0.5881    0.4258
 H    0.2519    0.6919    0.4058
 H    0.3434    0.7791    0.4517
 H    0.3722    0.8754    0.4329
 H    0.6217    0.8754    0.4329
 H    0.6505    0.7791    0.4517
 H    0.7437    0.5881    0.4258
 H    0.7420    0.6919    0.4058
 H    0.7502    0.4033    0.5716
 H    0.2437    0.4033    0.5716
 H    0.7677    0.3090    0.5920
 H    0.2262    0.3090    0.5920
 H    0.8722    0.1160    0.5646
 H    0.8386    0.2094    0.5457
 H    0.1217    0.1160    0.5646
 H    0.1553    0.2094    0.5457
 H    0.7437    0.4033    0.4258
 H    0.2502    0.4033    0.4258
 H    0.2677    0.3090    0.4055
 H    0.7262    0.3090    0.4055
 H    0.6217    0.1160    0.4329
 H    0.3722    0.1160    0.4329
 H    0.3386    0.2094    0.4518
 H    0.6553    0.2094    0.4518
 H    0.8007    0.7507    0.3417
 H    0.9045    0.7490    0.3216
 H    0.6172    0.8709    0.3146
 H    0.7135    0.8421    0.2957
 H    0.8007    0.2407    0.3417
 H    0.9045    0.2424    0.3216
 H    0.7135    0.1492    0.2957
 H    0.6172    0.1205    0.3146
 H    0.0894    0.7490    0.3216
 H    0.1932    0.7507    0.3417
 H    0.3767    0.8709    0.3146
 H    0.2804    0.8421    0.2957
 H    0.1932    0.2407    0.3417
 H    0.0894    0.2424    0.3216
 H    0.3767    0.1205    0.3146
 H    0.2804    0.1492    0.2957
 H    0.2158    0.7376    0.2710
 H    0.7804    0.1492    0.7017
 H    0.8767    0.1205    0.6829
 H    0.5894    0.2424    0.6758
 H    0.6932    0.2407    0.6558
 H    0.4045    0.7490    0.6758
 H    0.3007    0.7507    0.6558
 H    0.2135    0.8421    0.7017
 H    0.1172    0.8709    0.6829
 H    0.2135    0.1492    0.7017
 H    0.1172    0.1205    0.6829
 H    0.4045    0.2424    0.6758
 H    0.3007    0.2407    0.6558
 H    0.7157    0.7439    0.7265
 H    0.7157    0.7474    0.7710
 H    0.1172    0.6205    0.8146
 H    0.2135    0.6492    0.7957
 H    0.4045    0.7424    0.8216
 H    0.3007    0.7407    0.8417
 H    0.1172    0.3709    0.8146
 H    0.2135    0.3421    0.7957
 H    0.4045    0.2490    0.8216
 H    0.3007    0.2507    0.8417
 H    0.8767    0.6205    0.8146
 H    0.7804    0.6492    0.7957
 H    0.6932    0.7407    0.8417
 H    0.5894    0.7424    0.8216
 H    0.8767    0.3709    0.8146
 H    0.7804    0.3421    0.7957
 H    0.6932    0.2507    0.8417
 H    0.5894    0.2490    0.8216
 H    0.2782    0.7439    0.7265
 H    0.2782    0.7474    0.7710
 H    0.8722    0.6160    0.9329
 H    0.8434    0.7122    0.9517
 H    0.7502    0.9033    0.9258
 H    0.7519    0.7995    0.9058
 H    0.1217    0.6160    0.9329
 H    0.1505    0.7122    0.9517
 H    0.2437    0.9033    0.9258
 H    0.2420    0.7995    0.9058
 H    0.8722    0.3754    0.9329
 H    0.1217    0.3754    0.9329
 H    0.1553    0.2820    0.9518
 H    0.8386    0.2820    0.9518
 H    0.2437    0.0881    0.9258
 H    0.7502    0.0881    0.9258
 H    0.2262    0.1824    0.9055
 H    0.7677    0.1824    0.9055
 H    0.7420    0.7995    0.0917
 H    0.7437    0.9033    0.0716
 H    0.6217    0.6160    0.0646
 H    0.6505    0.7122    0.0457
 H    0.2502    0.9033    0.0716
 H    0.2519    0.7995    0.0917
 H    0.3722    0.6160    0.0646
 H    0.3434    0.7122    0.0457
 H    0.3722    0.3754    0.0646
 H    0.3386    0.2820    0.0457
 H    0.6217    0.3754    0.0646
 H    0.6553    0.2820    0.0457
 H    0.2502    0.0881    0.0716
 H    0.7437    0.0881    0.0716
 H    0.7262    0.1824    0.0920
 H    0.2677    0.1824    0.0920
 H    0.9045    0.2490    0.1758
 H    0.8007    0.2507    0.1558
 H    0.7135    0.3421    0.2017
 H    0.6172    0.3709    0.1829
 H    0.7135    0.6492    0.2017
 H    0.6172    0.6205    0.1829
 H    0.9045    0.7424    0.1758
 H    0.8007    0.7407    0.1558
 H    0.0894    0.2490    0.1758
 H    0.1932    0.2507    0.1558
 H    0.2804    0.3421    0.2017
 H    0.3767    0.3709    0.1829
 H    0.0894    0.7424    0.1758
 H    0.1932    0.7407    0.1558
 H    0.2804    0.6492    0.2017
 H    0.3767    0.6205    0.1829
 H    0.7781    0.7538    0.2265
 H    0.2158    0.7538    0.2265
 H    0.6234    0.5668    0.9955
 H    0.5981    0.6713    0.9943
 H    0.8375    0.6745    0.9804
 H    0.8859    0.6137    0.9918
 H    0.8108    0.5706    0.9820
 H    0.2802    0.6761    0.9767
 H    0.3418    0.5985    0.9832
 H    0.2395    0.5775    0.9791
 H    0.1254    0.5680    0.9935
 H    0.1006    0.6728    0.9927
 H    0.3700    0.9144    0.4915
 H    0.3819    0.8831    0.5072
 H    0.3954    0.8121    0.4949
 H    0.1474    0.8647    0.4822
 H    0.2328    0.9300    0.4809
 H    0.2400    0.8274    0.4759
 H    0.1280    0.8133    0.5126
 H    0.1931    0.8884    0.5190
 H    0.1265    0.9136    0.5066
 H    0.5973    0.8096    0.4969
 H    0.6151    0.8951    0.5066
 H    0.6220    0.9049    0.4902
 H    0.8645    0.9168    0.5069
 H    0.8008    0.8839    0.5192
 H    0.8688    0.8145    0.5121
 H    0.7285    0.8884    0.4774
 H    0.8245    0.9172    0.4835
 H    0.8085    0.8164    0.4781
 H    0.9279    0.6406    0.7584
 H    0.8672    0.6891    0.7698
 H    0.8240    0.6140    0.7600
 H    0.8662    0.7632    0.7264
 H    0.9311    0.6888    0.7330
 H    0.8285    0.6644    0.7296
 H    0.8165    0.8931    0.7437
 H    0.8758    0.8827    0.7574
 H    0.9211    0.8678    0.7426
 H    0.0650    0.8666    0.7451
 H    0.1361    0.8870    0.7571
 H    0.1672    0.8900    0.7413
 H    0.1599    0.6082    0.7585
 H    0.1412    0.6841    0.7698
 H    0.0616    0.6514    0.7599
 H    0.1734    0.7249    0.7262
 H    0.1124    0.6471    0.7328
 H    0.0701    0.7444    0.7299
 O    0.3814    0.2565    0.3723
 C    0.2465    0.1539    0.4987
 C    0.1470    0.1300    0.4994
 C    0.2475    0.1539    0.4988
 C    0.3189    0.1287    0.4885
 C    0.2764    0.1272    0.5127
 H    0.3353    0.0866    0.5141
 H    0.2932    0.1773    0.5202
 H    0.2329    0.0882    0.5192
 H    0.3187    0.1574    0.4783
 H    0.3884    0.1415    0.4907
 H    0.3271    0.0600    0.4853
 H    0.1257    0.0611    0.4989
 H    0.1074    0.1484    0.5082
 H    0.1013    0.1550    0.4917
 O    0.1126    0.2565    0.6252
 C    0.0419    0.2590    0.2732
 C    0.0882    0.2499    0.2610
 C    0.1820    0.2503    0.2612
 C    0.2348    0.2462    0.2488
 C    0.3388    0.2462    0.2488
 C    0.3655    0.2751    0.2627
 C    0.0425    0.2462    0.2488
 C    0.7592    0.2462    0.2488
 C    0.6552    0.2462    0.2488
 C    0.6285    0.2751    0.2627
 C    0.9515    0.2462    0.2488
 C    0.9521    0.2590    0.2732
 C    0.9058    0.2499    0.2610
 C    0.8120    0.2503    0.2612
 H    0.7922    0.1935    0.2673
 H    0.2158    0.2538    0.2710
 C    0.2348    0.2452    0.2487
 C    0.3388    0.2452    0.2487
 C    0.0425    0.2452    0.2487
 C    0.0419    0.2324    0.2242
 C    0.0882    0.2415    0.2365
 C    0.1820    0.2411    0.2363
 C    0.9521    0.2324    0.2242
 C    0.9058    0.2415    0.2365
 C    0.8120    0.2411    0.2363
 C    0.7592    0.2452    0.2487
 C    0.6552    0.2452    0.2487
 C    0.9515    0.2452    0.2487
 H    0.7781    0.2376    0.2265
 H    0.2158    0.2376    0.2265
 C    0.3627    0.1457    0.2494
 C    0.3640    0.3176    0.2385
 C    0.6300    0.3176    0.2385
 C    0.6313    0.1457    0.2494
 C    0.2475    0.3375    0.9987
 C    0.3470    0.3614    0.9994
 C    0.2465    0.3375    0.9988
 C    0.1751    0.3627    0.9885
 H    0.1453    0.3124    0.9820
 H    0.1132    0.3925    0.9919
 H    0.1890    0.4104    0.9804
 H    0.3710    0.4231    0.9950
 H    0.3961    0.3183    0.9947
 O    0.3814    0.2349    0.1252
 O    0.1126    0.2349    0.8723
 C    0.4521    0.2324    0.7732
 C    0.4058    0.2415    0.7610
 C    0.3120    0.2411    0.7612
 C    0.2592    0.2452    0.7488
 C    0.1552    0.2452    0.7488
 C    0.1300    0.1738    0.7385
 C    0.1285    0.2163    0.7627
 C    0.4515    0.2452    0.7488
 H    0.2781    0.2376    0.7710
 C    0.2592    0.2462    0.7487
 C    0.1552    0.2462    0.7487
 C    0.1313    0.3457    0.7494
 C    0.4515    0.2462    0.7487
 C    0.4521    0.2590    0.7242
 C    0.4058    0.2499    0.7365
 C    0.3120    0.2503    0.7363
 H    0.2781    0.2538    0.7265
 C    0.5419    0.2590    0.7242
 C    0.5882    0.2499    0.7365
 C    0.6820    0.2503    0.7363
 C    0.7348    0.2462    0.7487
 C    0.8388    0.2462    0.7487
 C    0.8627    0.3457    0.7494
 C    0.5425    0.2462    0.7487
 H    0.7158    0.2538    0.7265
 C    0.7348    0.2452    0.7488
 C    0.8388    0.2452    0.7488
 C    0.8640    0.1738    0.7385
 C    0.8655    0.2163    0.7627
 C    0.5425    0.2452    0.7488
 C    0.5419    0.2324    0.7732
 C    0.5882    0.2415    0.7610
 C    0.6820    0.2411    0.7612
 H    0.7158    0.2376    0.7710
 C    0.7475    0.3375    0.9988
 C    0.8470    0.3614    0.9981
 C    0.7465    0.3375    0.9987
 C    0.7176    0.3642    0.9848
 H    0.8687    0.4218    0.9931
 H    0.8938    0.3170    0.9931
 H    0.6801    0.3183    0.9785
 H    0.6741    0.4211    0.9834
 H    0.7661    0.3827    0.9771
 C    0.7465    0.1539    0.4988
 C    0.6470    0.1300    0.4981
 C    0.7475    0.1539    0.4987
 C    0.8189    0.1287    0.5090
 C    0.7764    0.1272    0.4848
 H    0.8887    0.1356    0.5064
 H    0.8224    0.1620    0.5188
 H    0.8231    0.0613    0.5129
 H    0.6259    0.0610    0.4979
 H    0.6020    0.1515    0.5061
 H    0.6064    0.1521    0.4896
 H    0.7402    0.1498    0.4759
 H    0.8422    0.1448    0.4812
 H    0.7791    0.0575    0.4820
 O    0.6126    0.2349    0.1252
 O    0.8814    0.2349    0.8723
 O    0.6126    0.2565    0.3723
 O    0.8814    0.2565    0.6252
 H    0.6731    0.0967    0.2444
 H    0.6267    0.1119    0.2591
 H    0.5685    0.1220    0.2453
 H    0.5673    0.3140    0.2330
 H    0.6237    0.3864    0.2416
 H    0.6716    0.3300    0.2296
 H    0.5661    0.2530    0.2671
 H    0.6698    0.2595    0.2714
 H    0.6200    0.3452    0.2650
 H    0.3155    0.2869    0.2705
 H    0.4088    0.2339    0.2689
 H    0.4016    0.3369    0.2641
 H    0.4042    0.1159    0.2416
 H    0.3985    0.1191    0.2581
 H    0.3107    0.0956    0.2492
 H    0.3137    0.3622    0.2344
 H    0.4120    0.3685    0.2411
 H    0.3933    0.2997    0.2287
 H    0.3997    0.6193    0.2395
 H    0.4031    0.6156    0.2560
 H    0.3106    0.5957    0.2481
 H    0.6757    0.5988    0.2432
 H    0.6217    0.6078    0.2574
 H    0.5709    0.6239    0.2430
 H    0.5607    0.8294    0.2616
 H    0.6544    0.8144    0.2694
 H    0.6475    0.8865    0.2572
 H    0.3136    0.8616    0.2632
 H    0.3941    0.7997    0.2687
 H    0.4114    0.8691    0.2563
 H    0.3182    0.8088    0.2282
 H    0.4196    0.8219    0.2334
 H    0.3880    0.7270    0.2273
 H    0.5670    0.7514    0.2303
 H    0.6180    0.8451    0.2326
 H    0.6708    0.7613    0.2261
 H    0.7176    0.8543    0.6135
 H    0.7106    0.8446    0.6299
 H    0.1358    0.7091    0.6166
 H    0.1503    0.7157    0.6329
 H    0.2763    0.1371    0.6135
 H    0.2833    0.1468    0.6299
 H    0.8581    0.2823    0.6166
 H    0.8436    0.2757    0.6329
 H    0.7146    0.0493    0.6230
 H    0.9431    0.7142    0.6266
 H    0.2793    0.9421    0.6230
 H    0.0508    0.2771    0.6266
 H    0.1879    0.9957    0.6042
 H    0.8060    0.9957    0.6042
 H    0.9970    0.8048    0.6433
 H    0.9970    0.1866    0.6433
 H    0.9350    0.2056    0.7651
 H    0.8498    0.2569    0.7715
 H    0.8410    0.1539    0.7668
 H    0.8181    0.3951    0.7451
 H    0.8724    0.3783    0.7591
 H    0.9229    0.3702    0.7446
 H    0.9077    0.1891    0.7300
 H    0.8983    0.1141    0.7418
 H    0.8130    0.1405    0.7325
 H    0.0659    0.3685    0.7463
 H    0.1334    0.3811    0.7590
 H    0.1691    0.3939    0.7436
 H    0.1749    0.1568    0.7302
 H    0.1172    0.1062    0.7418
 H    0.0706    0.1808    0.7323
 H    0.1424    0.1491    0.7661
 H    0.1544    0.2499    0.7716
 H    0.0591    0.2174    0.7657
 H    0.4182    0.7166    0.3645
 H    0.2125    0.8206    0.3728
 H    0.2183    0.8957    0.3846
 H    0.3373    0.2761    0.3655
 H    0.3662    0.2824    0.3813
 H    0.2169    0.0575    0.3801
 H    0.4595    0.9957    0.3597
 H    0.6384    0.7163    0.3635
 H    0.6480    0.7094    0.3799
 H    0.7836    0.1345    0.3666
 H    0.7769    0.1490    0.3829
 H    0.7784    0.9418    0.3766
 H    0.5505    0.2780    0.3730
 H    0.6492    0.9957    0.3573
 H    0.4827    0.8402    0.3889
 H    0.4499    0.0813    0.3775
 H    0.7163    0.6585    0.8815
 H    0.1720    0.7801    0.8747
 H    0.9126    0.7746    0.8639
 H    0.8196    0.7791    0.8721
 H    0.2760    0.5745    0.8830
 H    0.2830    0.5859    0.8667
 H    0.7146    0.4421    0.8745
 H    0.7106    0.3446    0.8676
 H    0.0679    0.2107    0.8788
 H    0.0969    0.2170    0.8629
 H    0.8581    0.2091    0.8809
 H    0.2799    0.3187    0.8764
 H    0.9114    0.5428    0.8700
 H    0.1524    0.5100    0.8585
 H    0.9970    0.3434    0.8902
 H    0.9970    0.6370    0.8920
 H    0.2125    0.6708    0.1247
 H    0.2183    0.5957    0.1129
 H    0.3555    0.2163    0.1340
 H    0.3459    0.2094    0.1176
 H    0.7836    0.3569    0.1309
 H    0.7769    0.3424    0.1146
 H    0.6740    0.7787    0.1264
 H    0.5872    0.7817    0.1167
 H    0.2155    0.4418    0.1208
 H    0.5505    0.2133    0.1245
 H    0.7819    0.5667    0.1288
 H    0.4182    0.7748    0.1330
 H    0.6879    0.4957    0.1042
 H    0.3060    0.4957    0.1042
 H    0.4970    0.6866    0.1433
 H    0.4970    0.3048    0.1433
 C    0.3189    0.6287    0.0090
 H    0.3853    0.6562    0.0082
 H    0.3099    0.6428    0.0198
 H    0.3390    0.5598    0.0102
 C    0.7764    0.6272    0.0127
 H    0.8463    0.6290    0.0154
 H    0.7520    0.6625    0.0216
 H    0.7632    0.5606    0.0165
 H    0.6129    0.6265    0.0091
 H    0.1083    0.6238    0.0074
 C    0.2176    0.3642    0.0127
 H    0.1536    0.3427    0.0166
 H    0.2563    0.3454    0.0216
 H    0.2104    0.4339    0.0153
 H    0.3802    0.3683    0.0092
 C    0.6751    0.3627    0.0090
 H    0.6128    0.3263    0.0094
 H    0.6887    0.3602    0.0199
 H    0.6461    0.4288    0.0089
 H    0.8849    0.3708    0.0074


