data_crystal

_cell_length_a    15.09200
_cell_length_b    15.09200
_cell_length_c    98.49400
_cell_angle_alpha 90.00000
_cell_angle_beta  90.00000
_cell_angle_gamma 90.00000

_symmetry_space_group_name_Hall 'P 1'
_symmetry_space_group_name_H-M  'P 1'

loop_
_symmetry_equiv_pos_as_xyz
 'x,y,z'

loop_
_atom_site_label
_atom_site_type_symbol
_atom_site_fract_x
_atom_site_fract_y
_atom_site_fract_z
Zr         Zr      0.49700   0.99570   0.34910
Zr         Zr      0.61420   0.87850   0.37370
Zr         Zr      0.37970   0.11290   0.37370
Zr         Zr      0.49700   0.49570   0.14840
Zr         Zr      0.61420   0.61290   0.12370
Zr         Zr      0.37970   0.61290   0.12370
Zr         Zr      0.61420   0.11290   0.37370
Zr         Zr      0.37970   0.87850   0.37370
Zr         Zr      0.99700   0.99570   0.59910
Zr         Zr      0.11420   0.11290   0.62370
Zr         Zr      0.87970   0.87850   0.62370
Zr         Zr      0.49700   0.99570   0.39840
Zr         Zr      0.87970   0.11290   0.62370
Zr         Zr      0.11420   0.87850   0.62370
Zr         Zr      0.37970   0.37850   0.12370
Zr         Zr      0.61420   0.37850   0.12370
Zr         Zr      0.49700   0.49570   0.09910
Zr         Zr      0.99700   0.49570   0.89840
Zr         Zr      0.11420   0.37850   0.87370
Zr         Zr      0.11420   0.61290   0.87370
Zr         Zr      0.87970   0.61290   0.87370
Zr         Zr      0.87970   0.37850   0.87370
Zr         Zr      0.99700   0.49570   0.84910
Zr         Zr      0.99700   0.99570   0.64840
H          H       0.74520   0.71450   0.52100
H          H       0.74870   0.71450   0.47650
H          H       0.74520   0.27690   0.52100
H          H       0.74870   0.27690   0.47650
H          H       0.24870   0.71450   0.52100
H          H       0.24870   0.27690   0.52100
H          H       0.24520   0.27690   0.47650
H          H       0.24520   0.71450   0.47650
H          H       0.74870   0.21450   0.02100
H          H       0.24520   0.21450   0.02100
H          H       0.24870   0.21450   0.97650
H          H       0.74870   0.77690   0.02100
H          H       0.24520   0.77690   0.02100
H          H       0.24870   0.77690   0.97650
H          H       0.74520   0.77690   0.97650
H          H       0.74520   0.21450   0.97650
H          H       0.79220   0.79790   0.26730
H          H       0.75190   0.69190   0.59170
H          H       0.75020   0.58810   0.57160
H          H       0.87220   0.87540   0.56460
H          H       0.84340   0.77910   0.54570
H          H       0.87670   0.87090   0.68290
H          H       0.69320   0.75070   0.65580
H          H       0.58940   0.74900   0.67580
H          H       0.78040   0.84210   0.70170
H          H       0.12170   0.87540   0.56460
H          H       0.15050   0.77910   0.54570
H          H       0.24370   0.58810   0.57160
H          H       0.24200   0.69190   0.59170
H          H       0.25020   0.58810   0.42580
H          H       0.25190   0.69190   0.40580
H          H       0.34340   0.77910   0.45170
H          H       0.37220   0.87540   0.43290
H          H       0.62170   0.87540   0.43290
H          H       0.65050   0.77910   0.45170
H          H       0.74370   0.58810   0.42580
H          H       0.74200   0.69190   0.40580
H          H       0.75020   0.40330   0.57160
H          H       0.24370   0.40330   0.57160
H          H       0.76770   0.30900   0.59200
H          H       0.22620   0.30900   0.59200
H          H       0.87220   0.11600   0.56460
H          H       0.83860   0.20940   0.54570
H          H       0.12170   0.11600   0.56460
H          H       0.15530   0.20940   0.54570
H          H       0.74370   0.40330   0.42580
H          H       0.25020   0.40330   0.42580
H          H       0.26770   0.30900   0.40550
H          H       0.72620   0.30900   0.40550
H          H       0.62170   0.11600   0.43290
H          H       0.37220   0.11600   0.43290
H          H       0.33860   0.20940   0.45180
H          H       0.65530   0.20940   0.45180
H          H       0.80070   0.75070   0.34170
H          H       0.90450   0.74900   0.32160
H          H       0.61720   0.87090   0.31460
H          H       0.71350   0.84210   0.29570
H          H       0.80070   0.24070   0.34170
H          H       0.90450   0.24240   0.32160
H          H       0.71350   0.14920   0.29570
H          H       0.61720   0.12050   0.31460
H          H       0.08940   0.74900   0.32160
H          H       0.19320   0.75070   0.34170
H          H       0.37670   0.87090   0.31460
H          H       0.28040   0.84210   0.29570
H          H       0.19320   0.24070   0.34170
H          H       0.08940   0.24240   0.32160
H          H       0.37670   0.12050   0.31460
H          H       0.28040   0.14920   0.29570
H          H       0.21580   0.73760   0.27100
H          H       0.78040   0.14920   0.70170
H          H       0.87670   0.12050   0.68290
H          H       0.58940   0.24240   0.67580
H          H       0.69320   0.24070   0.65580
H          H       0.40450   0.74900   0.67580
H          H       0.30070   0.75070   0.65580
H          H       0.21350   0.84210   0.70170
H          H       0.11720   0.87090   0.68290
H          H       0.21350   0.14920   0.70170
H          H       0.11720   0.12050   0.68290
H          H       0.40450   0.24240   0.67580
H          H       0.30070   0.24070   0.65580
H          H       0.71570   0.74390   0.72650
H          H       0.71570   0.74740   0.77100
H          H       0.11720   0.62050   0.81460
H          H       0.21350   0.64920   0.79570
H          H       0.40450   0.74240   0.82160
H          H       0.30070   0.74070   0.84170
H          H       0.11720   0.37090   0.81460
H          H       0.21350   0.34210   0.79570
H          H       0.40450   0.24900   0.82160
H          H       0.30070   0.25070   0.84170
H          H       0.87670   0.62050   0.81460
H          H       0.78040   0.64920   0.79570
H          H       0.69320   0.74070   0.84170
H          H       0.58940   0.74240   0.82160
H          H       0.87670   0.37090   0.81460
H          H       0.78040   0.34210   0.79570
H          H       0.69320   0.25070   0.84170
H          H       0.58940   0.24900   0.82160
H          H       0.27820   0.74390   0.72650
H          H       0.27820   0.74740   0.77100
H          H       0.87220   0.61600   0.93290
H          H       0.84340   0.71220   0.95170
H          H       0.75020   0.90330   0.92580
H          H       0.75190   0.79950   0.90580
H          H       0.12170   0.61600   0.93290
H          H       0.15050   0.71220   0.95170
H          H       0.24370   0.90330   0.92580
H          H       0.24200   0.79950   0.90580
H          H       0.87220   0.37540   0.93290
H          H       0.12170   0.37540   0.93290
H          H       0.15530   0.28200   0.95180
H          H       0.83860   0.28200   0.95180
H          H       0.24370   0.08810   0.92580
H          H       0.75020   0.08810   0.92580
H          H       0.22620   0.18240   0.90550
H          H       0.76770   0.18240   0.90550
H          H       0.74200   0.79950   0.09170
H          H       0.74370   0.90330   0.07160
H          H       0.62170   0.61600   0.06460
H          H       0.65050   0.71220   0.04570
H          H       0.25020   0.90330   0.07160
H          H       0.25190   0.79950   0.09170
H          H       0.37220   0.61600   0.06460
H          H       0.34340   0.71220   0.04570
H          H       0.37220   0.37540   0.06460
H          H       0.33860   0.28200   0.04570
H          H       0.62170   0.37540   0.06460
H          H       0.65530   0.28200   0.04570
H          H       0.25020   0.08810   0.07160
H          H       0.74370   0.08810   0.07160
H          H       0.72620   0.18240   0.09200
H          H       0.26770   0.18240   0.09200
H          H       0.90450   0.24900   0.17580
H          H       0.80070   0.25070   0.15580
H          H       0.71350   0.34210   0.20170
H          H       0.61720   0.37090   0.18290
H          H       0.71350   0.64920   0.20170
H          H       0.61720   0.62050   0.18290
H          H       0.90450   0.74240   0.17580
H          H       0.80070   0.74070   0.15580
H          H       0.08940   0.24900   0.17580
H          H       0.19320   0.25070   0.15580
H          H       0.28040   0.34210   0.20170
H          H       0.37670   0.37090   0.18290
H          H       0.08940   0.74240   0.17580
H          H       0.19320   0.74070   0.15580
H          H       0.28040   0.64920   0.20170
H          H       0.37670   0.62050   0.18290
H          H       0.77810   0.75380   0.22650
H          H       0.21580   0.75380   0.22650
H          H       0.62340   0.56680   0.99550
H          H       0.59810   0.67130   0.99430
H          H       0.83750   0.67450   0.98040
H          H       0.88590   0.61370   0.99180
H          H       0.81080   0.57060   0.98200
H          H       0.28020   0.67610   0.97670
H          H       0.34180   0.59850   0.98320
H          H       0.23950   0.57750   0.97910
H          H       0.12540   0.56800   0.99350
H          H       0.10060   0.67280   0.99270
H          H       0.37000   0.91440   0.49150
H          H       0.38190   0.88310   0.50720
H          H       0.39540   0.81210   0.49490
H          H       0.14740   0.86470   0.48220
H          H       0.23280   0.93000   0.48090
H          H       0.24000   0.82740   0.47590
H          H       0.12800   0.81330   0.51260
H          H       0.19310   0.88840   0.51900
H          H       0.12650   0.91360   0.50660
H          H       0.59730   0.80960   0.49690
H          H       0.61510   0.89510   0.50660
H          H       0.62200   0.90490   0.49020
H          H       0.86450   0.91680   0.50690
H          H       0.80080   0.88390   0.51920
H          H       0.86880   0.81450   0.51210
H          H       0.72850   0.88840   0.47740
H          H       0.82450   0.91720   0.48350
H          H       0.80850   0.81640   0.47810
H          H       0.92790   0.64060   0.75840
H          H       0.86720   0.68910   0.76980
H          H       0.82400   0.61400   0.76000
H          H       0.86620   0.76320   0.72640
H          H       0.93110   0.68880   0.73300
H          H       0.82850   0.66440   0.72960
H          H       0.81650   0.89310   0.74370
H          H       0.87580   0.88270   0.75740
H          H       0.92110   0.86780   0.74260
H          H       0.06500   0.86660   0.74510
H          H       0.13610   0.88700   0.75710
H          H       0.16720   0.89000   0.74130
H          H       0.15990   0.60820   0.75850
H          H       0.14120   0.68410   0.76980
H          H       0.06160   0.65140   0.75990
H          H       0.17340   0.72490   0.72620
H          H       0.11240   0.64710   0.73280
H          H       0.07010   0.74440   0.72990
H          H       0.33530   0.08660   0.51410
H          H       0.29320   0.17730   0.52020
H          H       0.23290   0.08820   0.51920
H          H       0.31870   0.15740   0.47830
H          H       0.38840   0.14150   0.49070
H          H       0.32710   0.06000   0.48530
H          H       0.12570   0.06110   0.49890
H          H       0.10740   0.14840   0.50820
H          H       0.10130   0.15500   0.49170
H          H       0.79220   0.19350   0.26730
H          H       0.21580   0.25380   0.27100
H          H       0.77810   0.23760   0.22650
H          H       0.21580   0.23760   0.22650
H          H       0.14530   0.31240   0.98200
H          H       0.11320   0.39250   0.99190
H          H       0.18900   0.41040   0.98040
H          H       0.37100   0.42310   0.99500
H          H       0.39610   0.31830   0.99470
H          H       0.27810   0.23760   0.77100
H          H       0.27810   0.25380   0.72650
H          H       0.71580   0.25380   0.72650
H          H       0.71580   0.23760   0.77100
H          H       0.86870   0.42180   0.99310
H          H       0.89380   0.31700   0.99310
H          H       0.68010   0.31830   0.97850
H          H       0.67410   0.42110   0.98340
H          H       0.76610   0.38270   0.97710
H          H       0.88870   0.13560   0.50640
H          H       0.82240   0.16200   0.51880
H          H       0.82310   0.06130   0.51290
H          H       0.62590   0.06100   0.49790
H          H       0.60200   0.15150   0.50610
H          H       0.60640   0.15210   0.48960
H          H       0.74020   0.14980   0.47590
H          H       0.84220   0.14480   0.48120
H          H       0.77910   0.05750   0.48200
H          H       0.67310   0.09670   0.24440
H          H       0.62670   0.11190   0.25910
H          H       0.56850   0.12200   0.24530
H          H       0.56730   0.31400   0.23300
H          H       0.62370   0.38640   0.24160
H          H       0.67160   0.33000   0.22960
H          H       0.56610   0.25300   0.26710
H          H       0.66980   0.25950   0.27140
H          H       0.62000   0.34520   0.26500
H          H       0.31550   0.28690   0.27050
H          H       0.40880   0.23390   0.26890
H          H       0.40160   0.33690   0.26410
H          H       0.40420   0.11590   0.24160
H          H       0.39850   0.11910   0.25810
H          H       0.31070   0.09560   0.24920
H          H       0.31370   0.36220   0.23440
H          H       0.41200   0.36850   0.24110
H          H       0.39330   0.29970   0.22870
H          H       0.39970   0.61930   0.23950
H          H       0.40310   0.61560   0.25600
H          H       0.31060   0.59570   0.24810
H          H       0.67570   0.59880   0.24320
H          H       0.62170   0.60780   0.25740
H          H       0.57090   0.62390   0.24300
H          H       0.56070   0.82940   0.26160
H          H       0.65440   0.81440   0.26940
H          H       0.64750   0.88650   0.25720
H          H       0.31360   0.86160   0.26320
H          H       0.39410   0.79970   0.26870
H          H       0.41140   0.86910   0.25630
H          H       0.31820   0.80880   0.22820
H          H       0.41960   0.82190   0.23340
H          H       0.38800   0.72700   0.22730
H          H       0.56700   0.75140   0.23030
H          H       0.61800   0.84510   0.23260
H          H       0.67080   0.76130   0.22610
H          H       0.71760   0.85430   0.61350
H          H       0.71060   0.84460   0.62990
H          H       0.13580   0.70910   0.61660
H          H       0.15030   0.71570   0.63290
H          H       0.27630   0.13710   0.61350
H          H       0.28330   0.14680   0.62990
H          H       0.85810   0.28230   0.61660
H          H       0.84360   0.27570   0.63290
H          H       0.71460   0.04930   0.62300
H          H       0.94310   0.71420   0.62660
H          H       0.27930   0.94210   0.62300
H          H       0.05080   0.27710   0.62660
H          H       0.18790   0.99570   0.60420
H          H       0.80600   0.99570   0.60420
H          H       0.99700   0.80480   0.64330
H          H       0.99700   0.18660   0.64330
H          H       0.93500   0.20560   0.76510
H          H       0.84980   0.25690   0.77150
H          H       0.84100   0.15390   0.76680
H          H       0.81810   0.39510   0.74510
H          H       0.87240   0.37830   0.75910
H          H       0.92290   0.37020   0.74460
H          H       0.90770   0.18910   0.73000
H          H       0.89830   0.11410   0.74180
H          H       0.81300   0.14050   0.73250
H          H       0.06590   0.36850   0.74630
H          H       0.13340   0.38110   0.75900
H          H       0.16910   0.39390   0.74360
H          H       0.17490   0.15680   0.73020
H          H       0.11720   0.10620   0.74180
H          H       0.07060   0.18080   0.73230
H          H       0.14240   0.14910   0.76610
H          H       0.15440   0.24990   0.77160
H          H       0.05910   0.21740   0.76570
H          H       0.41820   0.71660   0.36450
H          H       0.21250   0.82060   0.37280
H          H       0.21830   0.89570   0.38460
H          H       0.33730   0.27610   0.36550
H          H       0.36620   0.28240   0.38130
H          H       0.21690   0.05750   0.38010
H          H       0.45950   0.99570   0.35970
H          H       0.63840   0.71630   0.36350
H          H       0.64800   0.70940   0.37990
H          H       0.78360   0.13450   0.36660
H          H       0.77690   0.14900   0.38290
H          H       0.77840   0.94180   0.37660
H          H       0.55050   0.27800   0.37300
H          H       0.64920   0.99570   0.35730
H          H       0.48270   0.84020   0.38890
H          H       0.44990   0.08130   0.37750
H          H       0.71630   0.65850   0.88150
H          H       0.17200   0.78010   0.87470
H          H       0.91260   0.77460   0.86390
H          H       0.81960   0.77910   0.87210
H          H       0.27600   0.57450   0.88300
H          H       0.28300   0.58590   0.86670
H          H       0.71460   0.44210   0.87450
H          H       0.71060   0.34460   0.86760
H          H       0.06790   0.21070   0.87880
H          H       0.09690   0.21700   0.86290
H          H       0.85810   0.20910   0.88090
H          H       0.27990   0.31870   0.87640
H          H       0.91140   0.54280   0.87000
H          H       0.15240   0.51000   0.85850
H          H       0.99700   0.34340   0.89020
H          H       0.99700   0.63700   0.89200
H          H       0.21250   0.67080   0.12470
H          H       0.21830   0.59570   0.11290
H          H       0.35550   0.21630   0.13400
H          H       0.34590   0.20940   0.11760
H          H       0.78360   0.35690   0.13090
H          H       0.77690   0.34240   0.11460
H          H       0.67400   0.77870   0.12640
H          H       0.58720   0.78170   0.11670
H          H       0.21550   0.44180   0.12080
H          H       0.55050   0.21330   0.12450
H          H       0.78190   0.56670   0.12880
H          H       0.41820   0.77480   0.13300
H          H       0.68790   0.49570   0.10420
H          H       0.30600   0.49570   0.10420
H          H       0.49700   0.68660   0.14330
H          H       0.49700   0.30480   0.14330
H          H       0.38530   0.65620   0.00820
H          H       0.30990   0.64280   0.01980
H          H       0.33900   0.55980   0.01020
H          H       0.84630   0.62900   0.01540
H          H       0.75200   0.66250   0.02160
H          H       0.76320   0.56060   0.01650
H          H       0.61290   0.62650   0.00910
H          H       0.10830   0.62380   0.00740
H          H       0.15360   0.34270   0.01660
H          H       0.25630   0.34540   0.02160
H          H       0.21040   0.43390   0.01530
H          H       0.38020   0.36830   0.00920
H          H       0.61280   0.32630   0.00940
H          H       0.68870   0.36020   0.01990
H          H       0.64610   0.42880   0.00890
H          H       0.88490   0.37080   0.00740
C          C       0.65180   0.86380   0.34100
C          C       0.70890   0.82560   0.33020
C          C       0.78260   0.77930   0.33190
C          C       0.68230   0.84210   0.31650
C          C       0.83600   0.76950   0.32030
C          C       0.73370   0.82370   0.30600
C          C       0.80820   0.78350   0.30800
C          C       0.86520   0.76830   0.29700
C          C       0.90020   0.75220   0.28640
C          C       0.95210   0.73240   0.27320
C          C       0.90580   0.74150   0.26100
C          C       0.81200   0.74110   0.26120
C          C       0.75920   0.74620   0.24870
C          C       0.65520   0.74620   0.24870
C          C       0.63000   0.81760   0.25900
C          C       0.62850   0.77510   0.23480
C          C       0.95150   0.74620   0.24870
C          C       0.65180   0.62760   0.15650
C          C       0.70890   0.66580   0.16730
C          C       0.78260   0.71210   0.16560
C          C       0.68230   0.64930   0.18100
C          C       0.83600   0.72190   0.17720
C          C       0.73370   0.66770   0.19150
C          C       0.80820   0.70790   0.18950
C          C       0.86520   0.72310   0.20050
C          C       0.90020   0.73920   0.21110
C          C       0.95210   0.75900   0.22420
C          C       0.90580   0.74990   0.23650
C          C       0.81200   0.75030   0.23630
C          C       0.75920   0.74520   0.24880
C          C       0.65520   0.74520   0.24880
C          C       0.63130   0.64570   0.24810
C          C       0.95150   0.74520   0.24880
C          C       0.34220   0.62760   0.15650
C          C       0.28510   0.66580   0.16730
C          C       0.21140   0.71210   0.16560
C          C       0.31170   0.64930   0.18100
C          C       0.15800   0.72190   0.17720
C          C       0.26030   0.66770   0.19150
C          C       0.18580   0.70790   0.18950
C          C       0.12880   0.72310   0.20050
C          C       0.09380   0.73920   0.21110
C          C       0.04190   0.75900   0.22420
C          C       0.08820   0.74990   0.23650
C          C       0.18200   0.75030   0.23630
C          C       0.23480   0.74520   0.24880
C          C       0.33880   0.74520   0.24880
C          C       0.36270   0.64570   0.24810
C          C       0.04250   0.74520   0.24880
C          C       0.34220   0.86380   0.34100
C          C       0.28510   0.82560   0.33020
C          C       0.21140   0.77930   0.33190
C          C       0.31170   0.84210   0.31650
C          C       0.15800   0.76950   0.32030
C          C       0.26030   0.82370   0.30600
C          C       0.18580   0.78350   0.30800
C          C       0.12880   0.76830   0.29700
C          C       0.09380   0.75220   0.28640
C          C       0.04190   0.73240   0.27320
C          C       0.08820   0.74150   0.26100
C          C       0.18200   0.74110   0.26120
C          C       0.23480   0.74620   0.24870
C          C       0.33880   0.74620   0.24870
C          C       0.36400   0.81760   0.25900
C          C       0.36550   0.77510   0.23480
C          C       0.04250   0.74620   0.24870
C          C       0.12890   0.15050   0.59100
C          C       0.16710   0.20760   0.58020
C          C       0.21340   0.28130   0.58190
C          C       0.15060   0.18100   0.56650
C          C       0.22320   0.33470   0.57030
C          C       0.16900   0.23240   0.55600
C          C       0.20920   0.30690   0.55800
C          C       0.22440   0.36390   0.54700
C          C       0.24050   0.39890   0.53640
C          C       0.26030   0.45080   0.52320
C          C       0.25120   0.40450   0.51100
C          C       0.25160   0.31070   0.51120
C          C       0.24650   0.25790   0.49870
C          C       0.24650   0.45020   0.49870
C          C       0.36510   0.15050   0.40650
C          C       0.32690   0.20760   0.41730
C          C       0.28060   0.28130   0.41560
C          C       0.34340   0.18100   0.43100
C          C       0.27080   0.33470   0.42720
C          C       0.32500   0.23240   0.44150
C          C       0.28480   0.30690   0.43950
C          C       0.26960   0.36390   0.45050
C          C       0.25350   0.39890   0.46110
C          C       0.23370   0.45080   0.47420
C          C       0.24280   0.40450   0.48650
C          C       0.24240   0.31070   0.48630
C          C       0.24750   0.25790   0.49880
C          C       0.24750   0.45020   0.49880
C          C       0.36510   0.84090   0.40650
C          C       0.32690   0.78380   0.41730
C          C       0.28060   0.71010   0.41560
C          C       0.34340   0.81040   0.43100
C          C       0.27080   0.65670   0.42720
C          C       0.32500   0.75900   0.44150
C          C       0.28480   0.68450   0.43950
C          C       0.26960   0.62750   0.45050
C          C       0.25350   0.59250   0.46110
C          C       0.23370   0.54060   0.47420
C          C       0.24280   0.58690   0.48650
C          C       0.24240   0.68070   0.48630
C          C       0.24750   0.73350   0.49880
C          C       0.24750   0.83750   0.49880
C          C       0.34700   0.86140   0.49810
C          C       0.24750   0.54120   0.49880
C          C       0.12890   0.84090   0.59100
C          C       0.16710   0.78380   0.58020
C          C       0.21340   0.71010   0.58190
C          C       0.15060   0.81040   0.56650
C          C       0.22320   0.65670   0.57030
C          C       0.16900   0.75900   0.55600
C          C       0.20920   0.68450   0.55800
C          C       0.22440   0.62750   0.54700
C          C       0.24050   0.59250   0.53640
C          C       0.26030   0.54060   0.52320
C          C       0.25120   0.58690   0.51100
C          C       0.25160   0.68070   0.51120
C          C       0.24650   0.73350   0.49870
C          C       0.24650   0.83750   0.49870
C          C       0.17510   0.86270   0.50900
C          C       0.21760   0.86420   0.48480
C          C       0.24650   0.54120   0.49870
C          C       0.34220   0.12760   0.34100
C          C       0.28510   0.16580   0.33020
C          C       0.21140   0.21210   0.33190
C          C       0.31170   0.14930   0.31650
C          C       0.15800   0.22190   0.32030
C          C       0.26030   0.16770   0.30600
C          C       0.18580   0.20790   0.30800
C          C       0.12880   0.22310   0.29700
C          C       0.09380   0.23920   0.28640
C          C       0.34220   0.36380   0.15650
C          C       0.28510   0.32560   0.16730
C          C       0.21140   0.27930   0.16560
C          C       0.31170   0.34210   0.18100
C          C       0.15800   0.26950   0.17720
C          C       0.26030   0.32370   0.19150
C          C       0.18580   0.28350   0.18950
C          C       0.12880   0.26830   0.20050
C          C       0.09380   0.25220   0.21110
C          C       0.65180   0.36380   0.15650
C          C       0.70890   0.32560   0.16730
C          C       0.78260   0.27930   0.16560
C          C       0.68230   0.34210   0.18100
C          C       0.83600   0.26950   0.17720
C          C       0.73370   0.32370   0.19150
C          C       0.80820   0.28350   0.18950
C          C       0.86520   0.26830   0.20050
C          C       0.90020   0.25220   0.21110
C          C       0.65180   0.12760   0.34100
C          C       0.70890   0.16580   0.33020
C          C       0.78260   0.21210   0.33190
C          C       0.68230   0.14930   0.31650
C          C       0.83600   0.22190   0.32030
C          C       0.73370   0.16770   0.30600
C          C       0.80820   0.20790   0.30800
C          C       0.86520   0.22310   0.29700
C          C       0.90020   0.23920   0.28640
C          C       0.36510   0.34090   0.09100
C          C       0.32690   0.28380   0.08020
C          C       0.28060   0.21010   0.08190
C          C       0.34340   0.31040   0.06650
C          C       0.27080   0.15670   0.07030
C          C       0.32500   0.25900   0.05600
C          C       0.28480   0.18450   0.05800
C          C       0.26960   0.12750   0.04700
C          C       0.25350   0.09250   0.03640
C          C       0.23370   0.04060   0.02320
C          C       0.24280   0.08690   0.01100
C          C       0.24240   0.18070   0.01120
C          C       0.24750   0.23350   0.99870
C          C       0.24750   0.04120   0.99870
C          C       0.12890   0.34090   0.90650
C          C       0.16710   0.28380   0.91730
C          C       0.21340   0.21010   0.91560
C          C       0.15060   0.31040   0.93100
C          C       0.22320   0.15670   0.92720
C          C       0.16900   0.25900   0.94150
C          C       0.20920   0.18450   0.93950
C          C       0.22440   0.12750   0.95050
C          C       0.24050   0.09250   0.96110
C          C       0.26030   0.04060   0.97420
C          C       0.25120   0.08690   0.98650
C          C       0.25160   0.18070   0.98630
C          C       0.24650   0.23350   0.99880
C          C       0.24650   0.04120   0.99880
C          C       0.12890   0.65050   0.90650
C          C       0.16710   0.70760   0.91730
C          C       0.21340   0.78130   0.91560
C          C       0.15060   0.68100   0.93100
C          C       0.22320   0.83470   0.92720
C          C       0.16900   0.73240   0.94150
C          C       0.20920   0.80690   0.93950
C          C       0.22440   0.86390   0.95050
C          C       0.24050   0.89890   0.96110
C          C       0.26030   0.95080   0.97420
C          C       0.25120   0.90450   0.98650
C          C       0.25160   0.81070   0.98630
C          C       0.24650   0.75790   0.99880
C          C       0.24650   0.65390   0.99880
C          C       0.14700   0.63000   0.99810
C          C       0.24650   0.95020   0.99880
C          C       0.36510   0.65050   0.09100
C          C       0.32690   0.70760   0.08020
C          C       0.28060   0.78130   0.08190
C          C       0.34340   0.68100   0.06650
C          C       0.27080   0.83470   0.07030
C          C       0.32500   0.73240   0.05600
C          C       0.28480   0.80690   0.05800
C          C       0.26960   0.86390   0.04700
C          C       0.25350   0.89890   0.03640
C          C       0.23370   0.95080   0.02320
C          C       0.24280   0.90450   0.01100
C          C       0.24240   0.81070   0.01120
C          C       0.24750   0.75790   0.99870
C          C       0.24750   0.65390   0.99870
C          C       0.27640   0.62720   0.98480
C          C       0.24750   0.95020   0.99870
C          C       0.15180   0.36380   0.84100
C          C       0.20890   0.32560   0.83020
C          C       0.28260   0.27930   0.83190
C          C       0.18230   0.34210   0.81650
C          C       0.33600   0.26950   0.82030
C          C       0.23370   0.32370   0.80600
C          C       0.30820   0.28350   0.80800
C          C       0.36520   0.26830   0.79700
C          C       0.40020   0.25220   0.78640
C          C       0.15180   0.12760   0.65650
C          C       0.20890   0.16580   0.66730
C          C       0.28260   0.21210   0.66560
C          C       0.18230   0.14930   0.68100
C          C       0.33600   0.22190   0.67720
C          C       0.23370   0.16770   0.69150
C          C       0.30820   0.20790   0.68950
C          C       0.36520   0.22310   0.70050
C          C       0.40020   0.23920   0.71110
C          C       0.84220   0.12760   0.65650
C          C       0.78510   0.16580   0.66730
C          C       0.71140   0.21210   0.66560
C          C       0.81170   0.14930   0.68100
C          C       0.65800   0.22190   0.67720
C          C       0.76030   0.16770   0.69150
C          C       0.68580   0.20790   0.68950
C          C       0.62880   0.22310   0.70050
C          C       0.59380   0.23920   0.71110
C          C       0.84220   0.36380   0.84100
C          C       0.78510   0.32560   0.83020
C          C       0.71140   0.27930   0.83190
C          C       0.81170   0.34210   0.81650
C          C       0.65800   0.26950   0.82030
C          C       0.76030   0.32370   0.80600
C          C       0.68580   0.28350   0.80800
C          C       0.62880   0.26830   0.79700
C          C       0.59380   0.25220   0.78640
C          C       0.62890   0.65050   0.09100
C          C       0.66710   0.70760   0.08020
C          C       0.71340   0.78130   0.08190
C          C       0.65060   0.68100   0.06650
C          C       0.72320   0.83470   0.07030
C          C       0.66900   0.73240   0.05600
C          C       0.70920   0.80690   0.05800
C          C       0.72440   0.86390   0.04700
C          C       0.74050   0.89890   0.03640
C          C       0.76030   0.95080   0.02320
C          C       0.75120   0.90450   0.01100
C          C       0.75160   0.81070   0.01120
C          C       0.74650   0.75790   0.99870
C          C       0.74650   0.65390   0.99870
C          C       0.64700   0.63000   0.99940
C          C       0.74650   0.95020   0.99870
C          C       0.86510   0.65050   0.90650
C          C       0.82690   0.70760   0.91730
C          C       0.78060   0.78130   0.91560
C          C       0.84340   0.68100   0.93100
C          C       0.77080   0.83470   0.92720
C          C       0.82500   0.73240   0.94150
C          C       0.78480   0.80690   0.93950
C          C       0.76960   0.86390   0.95050
C          C       0.75350   0.89890   0.96110
C          C       0.73370   0.95080   0.97420
C          C       0.74280   0.90450   0.98650
C          C       0.74240   0.81070   0.98630
C          C       0.74750   0.75790   0.99880
C          C       0.74750   0.65390   0.99880
C          C       0.81890   0.62870   0.98850
C          C       0.74750   0.95020   0.99880
C          C       0.86510   0.34090   0.90650
C          C       0.82690   0.28380   0.91730
C          C       0.78060   0.21010   0.91560
C          C       0.84340   0.31040   0.93100
C          C       0.77080   0.15670   0.92720
C          C       0.82500   0.25900   0.94150
C          C       0.78480   0.18450   0.93950
C          C       0.76960   0.12750   0.95050
C          C       0.75350   0.09250   0.96110
C          C       0.73370   0.04060   0.97420
C          C       0.74280   0.08690   0.98650
C          C       0.74240   0.18070   0.98630
C          C       0.74750   0.23350   0.99880
C          C       0.74750   0.04120   0.99880
C          C       0.62890   0.34090   0.09100
C          C       0.66710   0.28380   0.08020
C          C       0.71340   0.21010   0.08190
C          C       0.65060   0.31040   0.06650
C          C       0.72320   0.15670   0.07030
C          C       0.66900   0.25900   0.05600
C          C       0.70920   0.18450   0.05800
C          C       0.72440   0.12750   0.04700
C          C       0.74050   0.09250   0.03640
C          C       0.76030   0.04060   0.02320
C          C       0.75120   0.08690   0.01100
C          C       0.75160   0.18070   0.01120
C          C       0.74650   0.23350   0.99870
C          C       0.74650   0.04120   0.99870
C          C       0.84220   0.62760   0.84100
C          C       0.78510   0.66580   0.83020
C          C       0.71140   0.71210   0.83190
C          C       0.81170   0.64930   0.81650
C          C       0.65800   0.72190   0.82030
C          C       0.76030   0.66770   0.80600
C          C       0.68580   0.70790   0.80800
C          C       0.62880   0.72310   0.79700
C          C       0.59380   0.73920   0.78640
C          C       0.54190   0.75900   0.77320
C          C       0.58820   0.74990   0.76100
C          C       0.68200   0.75030   0.76120
C          C       0.73480   0.74520   0.74870
C          C       0.83880   0.74520   0.74870
C          C       0.86400   0.67380   0.75900
C          C       0.86550   0.71630   0.73480
C          C       0.54250   0.74520   0.74870
C          C       0.84220   0.86380   0.65650
C          C       0.78510   0.82560   0.66730
C          C       0.71140   0.77930   0.66560
C          C       0.81170   0.84210   0.68100
C          C       0.65800   0.76950   0.67720
C          C       0.76030   0.82370   0.69150
C          C       0.68580   0.78350   0.68950
C          C       0.62880   0.76830   0.70050
C          C       0.59380   0.75220   0.71110
C          C       0.54190   0.73240   0.72420
C          C       0.58820   0.74150   0.73650
C          C       0.68200   0.74110   0.73630
C          C       0.73480   0.74620   0.74880
C          C       0.83880   0.74620   0.74880
C          C       0.86270   0.84570   0.74810
C          C       0.54250   0.74620   0.74880
C          C       0.15180   0.86380   0.65650
C          C       0.20890   0.82560   0.66730
C          C       0.28260   0.77930   0.66560
C          C       0.18230   0.84210   0.68100
C          C       0.33600   0.76950   0.67720
C          C       0.23370   0.82370   0.69150
C          C       0.30820   0.78350   0.68950
C          C       0.36520   0.76830   0.70050
C          C       0.40020   0.75220   0.71110
C          C       0.45210   0.73240   0.72420
C          C       0.40580   0.74150   0.73650
C          C       0.31200   0.74110   0.73630
C          C       0.25920   0.74620   0.74880
C          C       0.15520   0.74620   0.74880
C          C       0.13130   0.84570   0.74810
C          C       0.45150   0.74620   0.74880
C          C       0.15180   0.62760   0.84100
C          C       0.20890   0.66580   0.83020
C          C       0.28260   0.71210   0.83190
C          C       0.18230   0.64930   0.81650
C          C       0.33600   0.72190   0.82030
C          C       0.23370   0.66770   0.80600
C          C       0.30820   0.70790   0.80800
C          C       0.36520   0.72310   0.79700
C          C       0.40020   0.73920   0.78640
C          C       0.45210   0.75900   0.77320
C          C       0.40580   0.74990   0.76100
C          C       0.31200   0.75030   0.76120
C          C       0.25920   0.74520   0.74870
C          C       0.15520   0.74520   0.74870
C          C       0.13000   0.67380   0.75900
C          C       0.12850   0.71630   0.73480
C          C       0.45150   0.74520   0.74870
C          C       0.86510   0.84090   0.59100
C          C       0.82690   0.78380   0.58020
C          C       0.78060   0.71010   0.58190
C          C       0.84340   0.81040   0.56650
C          C       0.77080   0.65670   0.57030
C          C       0.82500   0.75900   0.55600
C          C       0.78480   0.68450   0.55800
C          C       0.76960   0.62750   0.54700
C          C       0.75350   0.59250   0.53640
C          C       0.73370   0.54060   0.52320
C          C       0.74280   0.58690   0.51100
C          C       0.74240   0.68070   0.51120
C          C       0.74750   0.73350   0.49870
C          C       0.74750   0.83750   0.49870
C          C       0.81890   0.86270   0.50900
C          C       0.77640   0.86420   0.48480
C          C       0.74750   0.54120   0.49870
C          C       0.62890   0.84090   0.40650
C          C       0.66710   0.78380   0.41730
C          C       0.71340   0.71010   0.41560
C          C       0.65060   0.81040   0.43100
C          C       0.72320   0.65670   0.42720
C          C       0.66900   0.75900   0.44150
C          C       0.70920   0.68450   0.43950
C          C       0.72440   0.62750   0.45050
C          C       0.74050   0.59250   0.46110
C          C       0.76030   0.54060   0.47420
C          C       0.75120   0.58690   0.48650
C          C       0.75160   0.68070   0.48630
C          C       0.74650   0.73350   0.49880
C          C       0.74650   0.83750   0.49880
C          C       0.64700   0.86140   0.49810
C          C       0.74650   0.54120   0.49880
C          C       0.62890   0.15050   0.40650
C          C       0.66710   0.20760   0.41730
C          C       0.71340   0.28130   0.41560
C          C       0.65060   0.18100   0.43100
C          C       0.72320   0.33470   0.42720
C          C       0.66900   0.23240   0.44150
C          C       0.70920   0.30690   0.43950
C          C       0.72440   0.36390   0.45050
C          C       0.74050   0.39890   0.46110
C          C       0.76030   0.45080   0.47420
C          C       0.75120   0.40450   0.48650
C          C       0.75160   0.31070   0.48630
C          C       0.74650   0.25790   0.49880
C          C       0.74650   0.45020   0.49880
C          C       0.86510   0.15050   0.59100
C          C       0.82690   0.20760   0.58020
C          C       0.78060   0.28130   0.58190
C          C       0.84340   0.18100   0.56650
C          C       0.77080   0.33470   0.57030
C          C       0.82500   0.23240   0.55600
C          C       0.78480   0.30690   0.55800
C          C       0.76960   0.36390   0.54700
C          C       0.75350   0.39890   0.53640
C          C       0.73370   0.45080   0.52320
C          C       0.74280   0.40450   0.51100
C          C       0.74240   0.31070   0.51120
C          C       0.74750   0.25790   0.49870
C          C       0.74750   0.45020   0.49870
C          C       0.24650   0.15390   0.49870
C          C       0.14700   0.13000   0.49940
C          C       0.24750   0.15390   0.49880
C          C       0.31890   0.12870   0.48850
C          C       0.27640   0.12720   0.51270
C          C       0.04190   0.25900   0.27320
C          C       0.08820   0.24990   0.26100
C          C       0.18200   0.25030   0.26120
C          C       0.23480   0.24620   0.24880
C          C       0.33880   0.24620   0.24880
C          C       0.36550   0.27510   0.26270
C          C       0.04250   0.24620   0.24880
C          C       0.75920   0.24620   0.24880
C          C       0.65520   0.24620   0.24880
C          C       0.62850   0.27510   0.26270
C          C       0.95150   0.24620   0.24880
C          C       0.95210   0.25900   0.27320
C          C       0.90580   0.24990   0.26100
C          C       0.81200   0.25030   0.26120
C          C       0.23480   0.24520   0.24870
C          C       0.33880   0.24520   0.24870
C          C       0.04250   0.24520   0.24870
C          C       0.04190   0.23240   0.22420
C          C       0.08820   0.24150   0.23650
C          C       0.18200   0.24110   0.23630
C          C       0.95210   0.23240   0.22420
C          C       0.90580   0.24150   0.23650
C          C       0.81200   0.24110   0.23630
C          C       0.75920   0.24520   0.24870
C          C       0.65520   0.24520   0.24870
C          C       0.95150   0.24520   0.24870
C          C       0.36270   0.14570   0.24940
C          C       0.36400   0.31760   0.23850
C          C       0.63000   0.31760   0.23850
C          C       0.63130   0.14570   0.24940
C          C       0.24750   0.33750   0.99870
C          C       0.34700   0.36140   0.99940
C          C       0.24650   0.33750   0.99880
C          C       0.17510   0.36270   0.98850
C          C       0.45210   0.23240   0.77320
C          C       0.40580   0.24150   0.76100
C          C       0.31200   0.24110   0.76120
C          C       0.25920   0.24520   0.74880
C          C       0.15520   0.24520   0.74880
C          C       0.13000   0.17380   0.73850
C          C       0.12850   0.21630   0.76270
C          C       0.45150   0.24520   0.74880
C          C       0.25920   0.24620   0.74870
C          C       0.15520   0.24620   0.74870
C          C       0.13130   0.34570   0.74940
C          C       0.45150   0.24620   0.74870
C          C       0.45210   0.25900   0.72420
C          C       0.40580   0.24990   0.73650
C          C       0.31200   0.25030   0.73630
C          C       0.54190   0.25900   0.72420
C          C       0.58820   0.24990   0.73650
C          C       0.68200   0.25030   0.73630
C          C       0.73480   0.24620   0.74870
C          C       0.83880   0.24620   0.74870
C          C       0.86270   0.34570   0.74940
C          C       0.54250   0.24620   0.74870
C          C       0.73480   0.24520   0.74880
C          C       0.83880   0.24520   0.74880
C          C       0.86400   0.17380   0.73850
C          C       0.86550   0.21630   0.76270
C          C       0.54250   0.24520   0.74880
C          C       0.54190   0.23240   0.77320
C          C       0.58820   0.24150   0.76100
C          C       0.68200   0.24110   0.76120
C          C       0.74750   0.33750   0.99880
C          C       0.84700   0.36140   0.99810
C          C       0.74650   0.33750   0.99870
C          C       0.71760   0.36420   0.98480
C          C       0.74650   0.15390   0.49880
C          C       0.64700   0.13000   0.49810
C          C       0.74750   0.15390   0.49870
C          C       0.81890   0.12870   0.50900
C          C       0.77640   0.12720   0.48480
C          C       0.31890   0.62870   0.00900
C          C       0.77640   0.62720   0.01270
C          C       0.21760   0.36420   0.01270
C          C       0.67510   0.36270   0.00900
O          O       0.59610   0.99570   0.36330
O          O       0.49700   0.85850   0.36000
O          O       0.58560   0.91040   0.33800
O          O       0.67210   0.84380   0.35320
O          O       0.61260   0.73490   0.37230
O          O       0.58560   0.58100   0.15950
O          O       0.67210   0.64760   0.14430
O          O       0.40840   0.58100   0.15950
O          O       0.32190   0.64760   0.14430
O          O       0.40840   0.91040   0.33800
O          O       0.32190   0.84380   0.35320
O          O       0.39790   0.99570   0.36330
O          O       0.49700   0.13290   0.36000
O          O       0.23620   0.11130   0.37520
O          O       0.75780   0.88010   0.37520
O          O       0.49700   0.09480   0.38420
O          O       0.49700   0.89660   0.38420
O          O       0.35980   0.99570   0.38750
O          O       0.63420   0.99570   0.38750
O          O       0.40840   0.08100   0.33800
O          O       0.58560   0.08100   0.33800
O          O       0.32190   0.14760   0.35320
O          O       0.34510   0.17080   0.39430
O          O       0.64890   0.82060   0.39430
O          O       0.99700   0.09480   0.61330
O          O       0.13420   0.99570   0.61000
O          O       0.08230   0.08430   0.58800
O          O       0.14890   0.17080   0.60320
O          O       0.25780   0.11130   0.62230
O          O       0.41170   0.08430   0.40950
O          O       0.41170   0.90710   0.40950
O          O       0.34510   0.82060   0.39430
O          O       0.08230   0.90710   0.58800
O          O       0.14890   0.82060   0.60320
O          O       0.99700   0.89660   0.61330
O          O       0.85980   0.99570   0.61000
O          O       0.73620   0.88010   0.62230
O          O       0.88140   0.73490   0.62520
O          O       0.89790   0.99570   0.63420
O          O       0.09610   0.99570   0.63420
O          O       0.99700   0.85850   0.63750
O          O       0.99700   0.13290   0.63750
O          O       0.91170   0.90710   0.58800
O          O       0.91170   0.08430   0.58800
O          O       0.84510   0.82060   0.60320
O          O       0.82190   0.84380   0.64430
O          O       0.17210   0.14760   0.64430
O          O       0.40840   0.41040   0.15950
O          O       0.32190   0.34380   0.14430
O          O       0.58560   0.41040   0.15950
O          O       0.67210   0.34380   0.14430
O          O       0.67210   0.14760   0.35320
O          O       0.49700   0.39660   0.11330
O          O       0.35980   0.49570   0.11000
O          O       0.41170   0.40710   0.08800
O          O       0.34510   0.32060   0.10320
O          O       0.23620   0.38010   0.12230
O          O       0.08230   0.40710   0.90950
O          O       0.14890   0.32060   0.89430
O          O       0.08230   0.58430   0.90950
O          O       0.14890   0.67080   0.89430
O          O       0.41170   0.58430   0.08800
O          O       0.34510   0.67080   0.10320
O          O       0.49700   0.59480   0.11330
O          O       0.63420   0.49570   0.11000
O          O       0.75780   0.61130   0.12230
O          O       0.61260   0.75650   0.12520
O          O       0.59610   0.49570   0.13420
O          O       0.39790   0.49570   0.13420
O          O       0.49700   0.63290   0.13750
O          O       0.49700   0.35850   0.13750
O          O       0.58230   0.58430   0.08800
O          O       0.58230   0.40710   0.08800
O          O       0.64890   0.67080   0.10320
O          O       0.58230   0.90710   0.40950
O          O       0.58230   0.08430   0.40950
O          O       0.99700   0.39660   0.88420
O          O       0.13420   0.49570   0.88750
O          O       0.25780   0.38010   0.87520
O          O       0.99700   0.59480   0.88420
O          O       0.85980   0.49570   0.88750
O          O       0.73620   0.61130   0.87520
O          O       0.88140   0.75650   0.87230
O          O       0.89790   0.49570   0.86330
O          O       0.09610   0.49570   0.86330
O          O       0.99700   0.63290   0.86000
O          O       0.99700   0.35850   0.86000
O          O       0.91170   0.58430   0.90950
O          O       0.91170   0.40710   0.90950
O          O       0.84510   0.67080   0.89430
O          O       0.82190   0.64760   0.85320
O          O       0.17210   0.34380   0.85320
O          O       0.08560   0.41040   0.83800
O          O       0.08560   0.08100   0.65950
O          O       0.90840   0.08100   0.65950
O          O       0.82190   0.14760   0.64430
O          O       0.90840   0.41040   0.83800
O          O       0.82190   0.34380   0.85320
O          O       0.90840   0.58100   0.83800
O          O       0.08560   0.58100   0.83800
O          O       0.84510   0.32060   0.89430
O          O       0.64890   0.32060   0.10320
O          O       0.90840   0.91040   0.65950
O          O       0.08560   0.91040   0.65950
O          O       0.17210   0.84380   0.64430
O          O       0.17210   0.64760   0.85320
O          O       0.64890   0.17080   0.39430
O          O       0.84510   0.17080   0.60320
O          O       0.38140   0.75650   0.12520
O          O       0.75780   0.38010   0.12230
O          O       0.23620   0.61130   0.12230
O          O       0.73620   0.38010   0.87520
O          O       0.25780   0.61130   0.87520
O          O       0.11260   0.75650   0.87230
O          O       0.75780   0.11130   0.37520
O          O       0.23620   0.88010   0.37520
O          O       0.38140   0.73490   0.37230
O          O       0.73620   0.11130   0.62230
O          O       0.25780   0.88010   0.62230
O          O       0.11260   0.73490   0.62520
O          O       0.38140   0.25650   0.37230
O          O       0.11260   0.25650   0.62520
O          O       0.38140   0.23490   0.12520
O          O       0.11260   0.23490   0.87230
O          O       0.61260   0.23490   0.12520
O          O       0.88140   0.23490   0.87230
O          O       0.61260   0.25650   0.37230
O          O       0.88140   0.25650   0.62520
