data_crystal

_cell_length_a    12.43500
_cell_length_b    14.58400
_cell_length_c    27.01800
_cell_angle_alpha 90.00000
_cell_angle_beta  107.87000
_cell_angle_gamma 90.00000

_symmetry_space_group_name_Hall 'P 1'
_symmetry_space_group_name_H-M  'P 1'

loop_
_symmetry_equiv_pos_as_xyz
 'x,y,z'

loop_
_atom_site_label
_atom_site_type_symbol
_atom_site_fract_x
_atom_site_fract_y
_atom_site_fract_z
C          C       0.81300   0.12750   0.38760
C          C       0.77390   0.15380   0.43300
Cu         Cu      0.78400   0.16020   0.27680
C          C       0.82000   0.11250   0.47980
C          C       0.69260   0.22150   0.42810
C          C       0.78530   0.13610   0.52280
H          H       0.87540   0.06790   0.48340
C          C       0.65720   0.24750   0.46930
H          H       0.66140   0.24980   0.39610
C          C       0.83740   0.09220   0.57360
C          C       0.70330   0.20230   0.51610
C          C       0.56910   0.31800   0.46190
O          O       0.79940   0.10660   0.60870
H          H       0.67770   0.21720   0.54400
C          C       0.47020   0.30880   0.42150
C          C       0.58380   0.39600   0.49310
H          H       0.46160   0.25720   0.40040
C          C       0.38410   0.37100   0.41050
C          C       0.68430   0.41560   0.53390
C          C       0.49420   0.46090   0.48380
C          C       0.28230   0.35580   0.36520
C          C       0.39350   0.44670   0.44280
C          C       0.69590   0.48920   0.56330
H          H       0.74450   0.37490   0.54020
C          C       0.25660   0.41590   0.32410
C          C       0.21210   0.28140   0.36320
H          H       0.76460   0.49970   0.58880
C          C       0.16070   0.40180   0.28070
H          H       0.30300   0.46620   0.32500
C          C       0.11750   0.26810   0.32170
H          H       0.22940   0.23970   0.39060
C          C       0.09210   0.32940   0.28030
C          C       0.13840   0.46840   0.23670
C          C       0.04050   0.19160   0.32110
H          H       0.02770   0.32050   0.25200
O          O       0.05310   0.45190   0.19870
O          O       0.20580   0.52940   0.23870
O          O       0.94790   0.18820   0.28730
O          O       0.07550   0.13280   0.35700
O          O       0.60190   0.14240   0.25320
O          O       0.75850   0.18910   0.19170
O          O       0.75180   0.30380   0.26700
C          C       0.50580   0.53910   0.51620
C          C       0.30410   0.51080   0.43670
C          C       0.60650   0.55330   0.55720
C          C       0.41620   0.60400   0.50690
H          H       0.23540   0.50030   0.41120
C          C       0.31570   0.58440   0.46610
C          C       0.61590   0.62900   0.58950
C          C       0.43090   0.68200   0.53810
H          H       0.25550   0.62510   0.45980
C          C       0.52980   0.69120   0.57850
C          C       0.71770   0.64420   0.63480
C          C       0.34280   0.75250   0.53070
H          H       0.53840   0.74280   0.59960
C          C       0.78790   0.71860   0.63680
C          C       0.74340   0.58410   0.67590
C          C       0.30740   0.77850   0.57190
C          C       0.29670   0.79770   0.48390
Cu         Cu      0.00710   0.52440   0.13670
Cu         Cu      0.21600   0.66020   0.22320
C          C       0.88250   0.73190   0.67830
H          H       0.77060   0.76030   0.60940
H          H       0.69700   0.53380   0.67500
C          C       0.83930   0.59820   0.71930
C          C       0.22610   0.84620   0.56700
H          H       0.33860   0.75020   0.60390
C          C       0.21470   0.86390   0.47720
H          H       0.32230   0.78280   0.45600
O          O       0.77680   0.17400   0.34730
O          O       0.79420   0.02940   0.26130
O          O       0.94690   0.95190   0.30130
O          O       0.08090   0.95920   0.42310
O          O       0.87640   0.06140   0.39340
C          C       0.95950   0.80840   0.67890
C          C       0.90790   0.67060   0.71970
C          C       0.86160   0.53160   0.76330
C          C       0.18700   0.87250   0.61240
C          C       0.18000   0.88750   0.52020
C          C       0.16260   0.90780   0.42640
O          O       0.12360   0.93860   0.60660
O          O       0.22320   0.82600   0.65270
O          O       0.92450   0.86720   0.64300
O          O       0.05210   0.81180   0.71270
H          H       0.97230   0.67950   0.74800
O          O       0.79420   0.47060   0.76130
O          O       0.94690   0.54810   0.80130
H          H       0.12460   0.93210   0.51660
O          O       0.20060   0.89340   0.39130
Cu         Cu      0.00710   0.97560   0.63670
Cu         Cu      0.21600   0.83980   0.72320
Cu         Cu      0.78400   0.33980   0.77680
Cu         Cu      0.99290   0.47560   0.86330
Cu         Cu      0.99290   0.02440   0.36330
O          O       0.91910   0.04080   0.57690
O          O       0.05310   0.04810   0.69870
O          O       0.39810   0.85760   0.74680
O          O       0.24150   0.81090   0.80830
O          O       0.24820   0.69620   0.73300
O          O       0.20580   0.97060   0.73870
C          C       0.18700   0.62750   0.11240
C          C       0.22610   0.65380   0.06700
C          C       0.18000   0.61250   0.02020
C          C       0.30740   0.72150   0.07190
C          C       0.21470   0.63610   0.97720
H          H       0.12460   0.56790   0.01660
C          C       0.34280   0.74750   0.03070
H          H       0.33860   0.74980   0.10390
C          C       0.16260   0.59220   0.92640
C          C       0.29670   0.70230   0.98390
C          C       0.43090   0.81800   0.03810
O          O       0.20060   0.60660   0.89130
H          H       0.32230   0.71720   0.95600
C          C       0.52980   0.80880   0.07860
C          C       0.41620   0.89600   0.00690
H          H       0.53840   0.75720   0.09960
C          C       0.61590   0.87100   0.08950
C          C       0.31570   0.91560   0.96610
C          C       0.50580   0.96090   0.01620
C          C       0.71770   0.85580   0.13480
C          C       0.60650   0.94670   0.05720
C          C       0.30410   0.98920   0.93670
H          H       0.25550   0.87490   0.95980
C          C       0.74340   0.91590   0.17590
C          C       0.78790   0.78140   0.13680
H          H       0.23540   0.99970   0.91120
C          C       0.83930   0.90180   0.21930
H          H       0.69700   0.96620   0.17500
C          C       0.88250   0.76810   0.17840
H          H       0.77060   0.73970   0.10940
C          C       0.90790   0.82940   0.21980
C          C       0.86160   0.96840   0.26330
C          C       0.95950   0.69160   0.17890
H          H       0.97230   0.82050   0.24800
O          O       0.05210   0.68820   0.21270
O          O       0.92450   0.63280   0.14310
O          O       0.39810   0.64240   0.24680
O          O       0.24150   0.68910   0.30830
O          O       0.24820   0.80380   0.23300
C          C       0.49420   0.03910   0.98380
C          C       0.69590   0.01080   0.06330
C          C       0.39350   0.05330   0.94280
C          C       0.58380   0.10400   0.99310
H          H       0.76460   0.00030   0.08880
C          C       0.68430   0.08440   0.03390
C          C       0.38410   0.12900   0.91050
C          C       0.56910   0.18200   0.96190
H          H       0.74450   0.12510   0.04020
C          C       0.47020   0.19120   0.92140
C          C       0.28230   0.14420   0.86520
C          C       0.65720   0.25250   0.96930
H          H       0.46160   0.24280   0.90040
C          C       0.21210   0.21860   0.86320
C          C       0.25660   0.08410   0.82410
C          C       0.69260   0.27850   0.92810
C          C       0.70330   0.29770   0.01610
C          C       0.11750   0.23190   0.82160
H          H       0.22940   0.26030   0.89060
H          H       0.30300   0.03380   0.82500
C          C       0.16070   0.09820   0.78070
C          C       0.77390   0.34620   0.93300
H          H       0.66140   0.25020   0.89610
C          C       0.78530   0.36390   0.02280
H          H       0.67770   0.28280   0.04400
O          O       0.22320   0.67400   0.15270
O          O       0.91910   0.45920   0.07690
O          O       0.12360   0.56140   0.10660
C          C       0.04050   0.30840   0.82110
C          C       0.09210   0.17060   0.78030
C          C       0.13840   0.03160   0.73670
C          C       0.81300   0.37250   0.88760
C          C       0.82000   0.38750   0.97980
C          C       0.83740   0.40780   0.07360
O          O       0.87640   0.43860   0.89340
O          O       0.77680   0.32600   0.84730
O          O       0.07550   0.36720   0.85700
O          O       0.94790   0.31180   0.78730
H          H       0.02770   0.17950   0.75200
H          H       0.87540   0.43210   0.98340
O          O       0.79940   0.39340   0.10870
O          O       0.08090   0.54080   0.92310
O          O       0.60190   0.35760   0.75320
O          O       0.75850   0.31090   0.69170
O          O       0.75180   0.19620   0.76700
H          H       0.43760   0.87120   0.78430
H          H       0.20640   0.85840   0.82250
H          H       0.25030   0.67840   0.76750
H          H       0.39970   0.91610   0.72400
H          H       0.20320   0.74440   0.81230
H          H       0.18070   0.65820   0.70440
H          H       0.47640   0.68330   0.25870
H          H       0.25020   0.75390   0.31450
H          H       0.22710   0.83310   0.19960
H          H       0.43750   0.57750   0.23510
H          H       0.16770   0.66460   0.31880
H          H       0.19860   0.83290   0.25660
H          H       0.56700   0.10140   0.22740
H          H       0.68020   0.18140   0.17240
H          H       0.67270   0.31510   0.26070
H          H       0.57100   0.17580   0.27560
H          H       0.78460   0.25990   0.18720
H          H       0.80050   0.34020   0.30240
H          H       0.61310   0.34410   0.79100
H          H       0.74980   0.24610   0.68550
H          H       0.77290   0.16690   0.80040
H          H       0.61960   0.42340   0.74670
H          H       0.68220   0.34660   0.66790
H          H       0.66130   0.18480   0.74730
