data_crystal

_cell_length_a    30.47900
_cell_length_b    30.47900
_cell_length_c    30.47900
_cell_angle_alpha 109.47000
_cell_angle_beta  109.47000
_cell_angle_gamma 109.47000

_symmetry_space_group_name_Hall 'P 1'
_symmetry_space_group_name_H-M  'P 1'

loop_
_symmetry_equiv_pos_as_xyz
 'x,y,z'

loop_
_atom_site_label
_atom_site_type_symbol
_atom_site_fract_x
_atom_site_fract_y
_atom_site_fract_z
H          H       0.67770   0.40440   0.50930
H          H       0.72210   0.43920   0.50930
H          H       0.46650   0.29460   0.32840
H          H       0.48230   0.26330   0.32840
H          H       0.60590   0.02020   0.38470
H          H       0.15990   0.89860   0.38470
C          C       0.31260   0.53320   0.93860
C          C       0.34830   0.56890   0.93860
C          C       0.29810   0.51880   0.83840
C          C       0.26240   0.48300   0.83840
O          O       0.26110   0.49200   0.88850
O          O       0.33950   0.57030   0.88850
C          C       0.94490   0.87210   0.83840
C          C       0.90910   0.83620   0.83840
C          C       0.09880   0.45440   0.81580
C          C       0.08300   0.47510   0.77680
C          C       0.12390   0.51330   0.77530
C          C       0.18000   0.53550   0.81030
C          C       0.02880   0.45710   0.74280
C          C       0.10900   0.53420   0.73990
C          C       0.15860   0.65990   0.67020
C          C       0.95310   0.45440   0.67020
C          C       0.24450   0.63660   0.77680
C          C       0.17430   0.63660   0.70660
C          C       0.01280   0.47500   0.70660
C          C       0.20490   0.59420   0.77530
C          C       0.13350   0.59420   0.70390
C          C       0.05260   0.51330   0.70390
C          C       0.21770   0.57310   0.81030
C          C       0.07730   0.57300   0.67000
C          C       0.03970   0.53550   0.67000
C          C       0.22850   0.65690   0.74280
C          C       0.14850   0.57390   0.73990
C          C       0.81290   0.30060   0.59670
C          C       0.01840   0.30050   0.80220
C          C       0.81000   0.25160   0.59550
C          C       0.97080   0.25160   0.75610
C          C       0.85050   0.25290   0.63430
C          C       0.93320   0.25280   0.71680
C          C       0.89750   0.30170   0.68120
C          C       0.93520   0.30180   0.71890
C          C       0.23890   0.72660   0.59670
Mg         Mg      0.07470   0.41800   0.88850
Mg         Mg      0.84410   0.41800   0.65790
O          O       0.06480   0.44120   0.83140
O          O       0.13690   0.44560   0.82280
O          O       0.19270   0.70940   0.69100
O          O       0.92440   0.44120   0.69100
O          O       0.12040   0.62860   0.62330
O          O       0.93740   0.44570   0.62330
O          O       0.01640   0.33990   0.82960
O          O       0.82500   0.33990   0.63800
O          O       0.80080   0.30050   0.54940
O          O       0.06560   0.30040   0.81420
O          O       0.24100   0.75590   0.63800
O          O       0.19190   0.69140   0.54940
C          C       0.30420   0.65990   0.81580
C          C       0.33670   0.72650   0.49870
C          C       0.33560   0.72820   0.54640
C          C       0.37440   0.72670   0.58420
C          C       0.42150   0.72660   0.58220
C          C       0.37120   0.72950   0.63110
C          C       0.29030   0.72520   0.55010
C          C       0.54240   0.72650   0.70430
C          C       0.44440   0.72650   0.80220
C          C       0.49650   0.72830   0.70720
C          C       0.44730   0.72820   0.75610
C          C       0.28670   0.72830   0.59550
C          C       0.45700   0.72660   0.66670
C          C       0.40680   0.72660   0.71680
C          C       0.32430   0.72670   0.63430
C          C       0.45890   0.72650   0.61960
C          C       0.36000   0.72650   0.71890
C          C       0.32230   0.72650   0.68120
C          C       0.41300   0.72950   0.67280
C          C       0.48970   0.72530   0.74950
Mg         Mg      0.41330   0.75660   0.88850
Mg         Mg      0.38570   0.63310   0.88850
Mg         Mg      0.62860   0.44540   0.45800
O          O       0.33310   0.70940   0.83140
O          O       0.32000   0.62870   0.82280
O          O       0.43240   0.75590   0.82960
O          O       0.56980   0.75590   0.69230
O          O       0.37830   0.75600   0.50080
O          O       0.28960   0.69140   0.45160
O          O       0.55440   0.69140   0.71640
O          O       0.45660   0.69150   0.81420
O          O       0.62870   0.39550   0.39230
C          C       0.96710   0.20260   0.74950
Mg         Mg      0.62870   0.63320   0.64560
C          C       0.92060   0.10470   0.70430
C          C       0.92180   0.15360   0.70720
C          C       0.88280   0.15240   0.66670
C          C       0.83590   0.10350   0.61960
C          C       0.88620   0.20260   0.67280
C          C       0.71490   0.10470   0.49870
C          C       0.76100   0.15360   0.54640
C          C       0.80030   0.15250   0.58420
C          C       0.79840   0.10350   0.58220
C          C       0.84450   0.20270   0.63110
C          C       0.76760   0.20260   0.55010
O          O       0.87920   0.06540   0.69230
O          O       0.96780   0.10480   0.71640
O          O       0.70300   0.10490   0.45160
O          O       0.68770   0.06540   0.50080
O          O       0.62870   0.69890   0.69570
C          C       0.55600   0.65980   0.56400
C          C       0.51700   0.63660   0.50440
C          C       0.51560   0.59430   0.46470
C          C       0.55060   0.57320   0.47760
C          C       0.48310   0.65690   0.48840
C          C       0.48010   0.57390   0.40830
C          C       0.55600   0.45450   0.35870
C          C       0.41040   0.45450   0.21300
C          C       0.41040   0.65980   0.41850
C          C       0.51710   0.47510   0.34280
C          C       0.44680   0.47510   0.27260
C          C       0.44690   0.63670   0.43420
C          C       0.51550   0.51320   0.38370
C          C       0.44410   0.51330   0.31230
C          C       0.44410   0.59430   0.39330
C          C       0.55070   0.53560   0.43990
C          C       0.41030   0.53570   0.29960
C          C       0.41020   0.57320   0.33720
C          C       0.48310   0.45710   0.28860
C          C       0.48010   0.53430   0.36870
Mg         Mg      0.62880   0.41810   0.33460
Mg         Mg      0.39810   0.75670   0.44260
Mg         Mg      0.62870   0.75670   0.67300
O          O       0.57160   0.44130   0.32460
O          O       0.57160   0.70940   0.59280
O          O       0.56300   0.44560   0.39680
O          O       0.56310   0.62870   0.57990
O          O       0.43120   0.70940   0.45240
O          O       0.43110   0.44110   0.18420
O          O       0.36340   0.62870   0.38020
O          O       0.36350   0.44570   0.19730
C          C       0.34830   0.25280   0.25480
C          C       0.31250   0.25280   0.21900
O          O       0.62870   0.81950   0.66360
Mg         Mg      0.18270   0.75660   0.65790
O          O       0.24550   0.81950   0.73010
C          C       0.23880   0.28880   0.79050
O          O       0.24100   0.26160   0.75120
O          O       0.19180   0.27690   0.79070
C          C       0.08590   0.98440   0.41850
C          C       0.06270   0.02070   0.43420
C          C       0.02030   0.01800   0.39330
C          C       0.99920   0.98410   0.33720
C          C       0.08300   0.05700   0.48840
C          C       0.99990   0.05410   0.40830
C          C       0.88050   0.98430   0.21300
C          C       0.88050   0.13000   0.35870
C          C       0.08580   0.12990   0.56400
C          C       0.90110   0.02080   0.27260
C          C       0.90110   0.09100   0.34280
C          C       0.06270   0.09100   0.50440
C          C       0.93930   0.01810   0.31230
C          C       0.93930   0.08950   0.38370
C          C       0.02040   0.08940   0.46470
C          C       0.96170   0.98430   0.29960
C          C       0.96160   0.12450   0.43980
C          C       0.99910   0.12450   0.47740
C          C       0.88320   0.05710   0.28860
C          C       0.96030   0.05410   0.36870
C          C       0.15260   0.11630   0.70430
C          C       0.15430   0.07030   0.70720
C          C       0.15260   0.03110   0.66670
C          C       0.15250   0.03290   0.61960
C          C       0.15560   0.98690   0.67280
C          C       0.15120   0.06370   0.74950
C          C       0.15250   0.91070   0.49870
C          C       0.15260   0.81290   0.59670
C          C       0.15260   0.01840   0.80220
C          C       0.15430   0.90960   0.54640
C          C       0.15430   0.86060   0.59550
C          C       0.15420   0.02130   0.75610
C          C       0.15270   0.94850   0.58420
C          C       0.15270   0.89820   0.63430
C          C       0.15260   0.98080   0.71680
C          C       0.15260   0.99530   0.58220
C          C       0.15260   0.89630   0.68120
C          C       0.15260   0.93380   0.71890
C          C       0.15560   0.94510   0.63110
C          C       0.15130   0.86420   0.55010
C          C       0.08590   0.87820   0.81580
C          C       0.06260   0.81850   0.77680
C          C       0.02040   0.77880   0.77530
C          C       0.99910   0.79160   0.81030
C          C       0.08290   0.80250   0.74280
C          C       0.99990   0.72240   0.73990
C          C       0.88060   0.67270   0.81580
C          C       0.88040   0.52710   0.67020
C          C       0.08590   0.73260   0.67020
C          C       0.90110   0.65690   0.77680
C          C       0.90110   0.58670   0.70660
C          C       0.06270   0.74840   0.70660
C          C       0.93940   0.69790   0.77530
C          C       0.93930   0.62650   0.70390
C          C       0.02030   0.70740   0.70390
C          C       0.96160   0.75400   0.81030
C          C       0.96150   0.61360   0.67000
C          C       0.99920   0.65120   0.67000
C          C       0.88320   0.60270   0.74280
C          C       0.96030   0.68280   0.73990
Mg         Mg      0.18260   0.20260   0.67300
Mg         Mg      0.18260   0.98720   0.88850
O          O       0.86720   0.63870   0.83140
O          O       0.13540   0.90690   0.83140
O          O       0.87170   0.71090   0.82280
O          O       0.05470   0.89390   0.82280
O          O       0.18190   0.00630   0.82960
O          O       0.13550   0.00510   0.45240
O          O       0.05470   0.93730   0.38020
O          O       0.86720   0.00510   0.18420
O          O       0.86720   0.14550   0.32460
O          O       0.13540   0.14550   0.59280
O          O       0.87170   0.93740   0.19730
O          O       0.87180   0.13700   0.39680
O          O       0.05470   0.13690   0.57990
O          O       0.18200   0.95230   0.50080
O          O       0.18190   0.14360   0.69230
O          O       0.11740   0.12830   0.71640
O          O       0.18200   0.81490   0.63800
O          O       0.11750   0.86360   0.45160
O          O       0.11750   0.76570   0.54940
O          O       0.11740   0.03050   0.81420
O          O       0.86720   0.49840   0.69100
O          O       0.13540   0.76660   0.69100
O          O       0.87170   0.51140   0.62330
O          O       0.05470   0.69430   0.62330
C          C       0.72670   0.91080   0.07270
C          C       0.67770   0.90960   0.06980
C          C       0.67900   0.94850   0.11030
C          C       0.72780   0.99540   0.15740
C          C       0.62870   0.94520   0.10420
C          C       0.62870   0.86430   0.02760
C          C       0.72660   0.11630   0.27830
C          C       0.53080   0.01850   0.18050
C          C       0.53080   0.81290   0.97480
C          C       0.67770   0.07040   0.23060
C          C       0.57970   0.02140   0.18170
C          C       0.57980   0.86060   0.02090
C          C       0.67900   0.03110   0.19300
C          C       0.57850   0.98090   0.14270
C          C       0.57860   0.89830   0.06020
C          C       0.72780   0.03300   0.19500
C          C       0.52960   0.93390   0.09580
C          C       0.52960   0.89630   0.05830
C          C       0.62870   0.98700   0.14610
C          C       0.62860   0.06360   0.22690
Mg         Mg      0.84420   0.20270   0.33460
O          O       0.49140   0.81500   0.94760
O          O       0.76600   0.95230   0.08490
O          O       0.76600   0.14370   0.27620
O          O       0.72650   0.86360   0.06060
O          O       0.49140   0.00640   0.13890
O          O       0.72650   0.12840   0.32540
O          O       0.53090   0.03060   0.22760
O          O       0.53090   0.76580   0.96280
Mg         Mg      0.39820   0.41810   0.10400
C          C       0.95920   0.25280   0.57230
C          C       0.99510   0.25280   0.60820
C          C       0.55600   0.67280   0.14040
C          C       0.51700   0.65690   0.16090
C          C       0.51550   0.69790   0.19910
C          C       0.55070   0.75410   0.22140
C          C       0.48320   0.60280   0.14300
C          C       0.48010   0.68290   0.22020
C          C       0.55600   0.87820   0.34580
C          C       0.41040   0.73260   0.34580
C          C       0.41040   0.52720   0.14040
C          C       0.51700   0.81860   0.32250
C          C       0.44670   0.74830   0.32250
C          C       0.44680   0.58680   0.16090
C          C       0.51560   0.77890   0.28010
C          C       0.44420   0.70750   0.28010
C          C       0.44410   0.62650   0.19910
C          C       0.55070   0.79170   0.25910
C          C       0.41030   0.65130   0.25910
C          C       0.41030   0.61370   0.22140
C          C       0.48310   0.80260   0.34280
C          C       0.48010   0.72250   0.25970
O          O       0.43110   0.76660   0.39520
O          O       0.43110   0.49840   0.12710
O          O       0.36350   0.69440   0.31450
O          O       0.36350   0.51140   0.13160
O          O       0.57150   0.90690   0.39520
O          O       0.57150   0.63880   0.12710
O          O       0.56310   0.89390   0.31450
O          O       0.56310   0.71100   0.13160
O          O       0.39220   0.58190   0.82790
O          O       0.62850   0.42740   0.27150
O          O       0.56820   0.37860   0.44860
O          O       0.56840   0.58220   0.65190
O          O       0.47040   0.81930   0.50550
O          O       0.47040   0.42740   0.11360
O          O       0.85360   0.42750   0.73010
C          C       0.10490   0.38680   0.97480
C          C       0.10310   0.38400   0.02090
C          C       0.10470   0.42450   0.06020
C          C       0.10480   0.47150   0.05830
C          C       0.10190   0.41840   0.10420
C          C       0.10610   0.34170   0.02760
C          C       0.10480   0.59250   0.18050
C          C       0.10480   0.49450   0.27830
C          C       0.10490   0.28900   0.07270
C          C       0.10310   0.54480   0.18170
C          C       0.10320   0.49580   0.23060
C          C       0.10310   0.33500   0.06980
C          C       0.10470   0.50700   0.14270
C          C       0.10470   0.45690   0.19300
C          C       0.10470   0.37430   0.11030
C          C       0.10480   0.50910   0.09580
C          C       0.10480   0.41000   0.19500
C          C       0.10490   0.37240   0.15740
C          C       0.10190   0.46020   0.14610
C          C       0.10620   0.54110   0.22690
O          O       0.07540   0.39900   0.94760
O          O       0.13990   0.37470   0.96280
O          O       0.07540   0.59040   0.13890
O          O       0.07540   0.45310   0.27620
O          O       0.07540   0.26170   0.08490
O          O       0.13990   0.63960   0.22760
O          O       0.13990   0.54180   0.32540
O          O       0.13990   0.27700   0.06060
C          C       0.99510   0.92230   0.93860
C          C       0.95920   0.88650   0.93860
Mg         Mg      0.05930   0.95970   0.88850
Mg         Mg      0.87160   0.77210   0.88850
O          O       0.99650   0.91340   0.88850
O          O       0.12490   0.00990   0.88850
O          O       0.82150   0.70640   0.88850
O          O       0.91810   0.83500   0.88850
C          C       0.94500   0.15260   0.55800
C          C       0.90910   0.15250   0.52220
Mg         Mg      0.87160   0.20270   0.45800
O          O       0.82150   0.20260   0.39230
O          O       0.91810   0.20260   0.52080
O          O       0.99650   0.20270   0.59920
Mg         Mg      0.05920   0.20260   0.64560
O          O       0.12480   0.20260   0.69570
C          C       0.15860   0.95090   0.96130
C          C       0.09890   0.74550   0.10680
C          C       0.17450   0.93030   0.00020
C          C       0.24460   0.93030   0.07040
C          C       0.08300   0.76860   0.07040
C          C       0.13350   0.89210   0.00170
C          C       0.20500   0.89210   0.07310
C          C       0.12390   0.81110   0.07310
C          C       0.07730   0.86980   0.96670
C          C       0.21780   0.86980   0.10700
C          C       0.18010   0.83220   0.10700
C          C       0.22860   0.94820   0.03420
C          C       0.14850   0.87100   0.03710
C          C       0.95320   0.74550   0.96130
C          C       0.01280   0.76870   0.00020
C          C       0.05250   0.81110   0.00170
C          C       0.03970   0.83220   0.96670
C          C       0.02880   0.74840   0.03420
C          C       0.10890   0.83150   0.03710
Mg         Mg      0.84410   0.64860   0.88850
O          O       0.19260   0.96400   0.94560
O          O       0.06480   0.69580   0.08600
O          O       0.12040   0.95960   0.95420
O          O       0.13710   0.77670   0.15390
O          O       0.85370   0.58580   0.88850
O          O       0.92440   0.69580   0.94560
O          O       0.93750   0.77670   0.95420
C          C       0.30430   0.95090   0.10680
O          O       0.33310   0.96400   0.08600
O          O       0.32000   0.95970   0.15390
Mg         Mg      0.41330   0.98730   0.11910
C          C       0.57860   0.48310   0.52220
C          C       0.57860   0.51890   0.55800
C          C       0.67880   0.53310   0.57230
C          C       0.67890   0.56900   0.60820
O          O       0.62870   0.49190   0.52080
O          O       0.62870   0.57030   0.59920
C          C       0.72660   0.38690   0.59670
C          C       0.67780   0.38400   0.59550
C          C       0.67900   0.42450   0.63430
C          C       0.72780   0.47150   0.68120
C          C       0.62870   0.41830   0.63110
C          C       0.72650   0.59240   0.80220
C          C       0.67770   0.54480   0.75610
C          C       0.67890   0.50700   0.71680
C          C       0.72780   0.50910   0.71890
C          C       0.62870   0.46010   0.67280
O          O       0.76600   0.39900   0.63800
O          O       0.72650   0.37480   0.54940
O          O       0.76600   0.59040   0.82960
O          O       0.72650   0.63950   0.81420
C          C       0.53080   0.28890   0.49870
C          C       0.53090   0.49460   0.70430
C          C       0.57970   0.33490   0.54640
C          C       0.57970   0.49570   0.70720
C          C       0.57850   0.37430   0.58420
C          C       0.57850   0.45690   0.66670
C          C       0.52970   0.37240   0.58220
C          C       0.52970   0.40990   0.61960
C          C       0.62870   0.34160   0.55010
C          C       0.62870   0.54100   0.74950
O          O       0.49140   0.26170   0.50080
O          O       0.49140   0.45310   0.69230
O          O       0.53090   0.27700   0.45160
O          O       0.53090   0.54170   0.71640
C          C       0.26250   0.15260   0.16900
C          C       0.29820   0.15260   0.20470
Mg         Mg      0.38570   0.20260   0.31900
O          O       0.26110   0.20270   0.17780
O          O       0.33950   0.20270   0.25620
O          O       0.43590   0.20270   0.38470
O          O       0.39230   0.14210   0.26790
C          C       0.17160   0.27540   0.21300
C          C       0.19470   0.31440   0.27260
C          C       0.23710   0.31580   0.31230
C          C       0.17440   0.34830   0.28860
C          C       0.17150   0.42100   0.35870
C          C       0.19470   0.38450   0.34280
C          C       0.23710   0.38720   0.38370
O          O       0.12200   0.25980   0.18420
O          O       0.20270   0.26840   0.19730
O          O       0.12190   0.40020   0.32460
O          O       0.20270   0.46790   0.39680
C          C       0.25820   0.28080   0.29960
C          C       0.25750   0.35130   0.36870
C          C       0.37690   0.27540   0.41850
C          C       0.37690   0.42100   0.56400
C          C       0.35640   0.31440   0.43420
C          C       0.35630   0.38460   0.50440
C          C       0.31820   0.31590   0.39330
C          C       0.31820   0.38730   0.46470
C          C       0.29580   0.28080   0.33720
C          C       0.29580   0.42110   0.47740
C          C       0.25820   0.42110   0.43980
C          C       0.37420   0.34830   0.48840
C          C       0.29710   0.35130   0.40830
Mg         Mg      0.41330   0.43320   0.67300
O          O       0.39020   0.25980   0.45240
O          O       0.39010   0.40020   0.59280
O          O       0.38580   0.26840   0.38020
O          O       0.38570   0.46800   0.57990
Mg         Mg      0.07480   0.43330   0.33460
C          C       0.09890   0.42100   0.43140
C          C       0.08300   0.38460   0.45450
C          C       0.12390   0.38730   0.49690
C          C       0.18010   0.42120   0.51810
C          C       0.02880   0.34820   0.43420
C          C       0.10890   0.35130   0.51730
C          C       0.15860   0.27540   0.63680
C          C       0.95320   0.27540   0.43140
C          C       0.24460   0.38460   0.61610
C          C       0.17450   0.31440   0.61610
C          C       0.01280   0.31440   0.45450
C          C       0.20480   0.38720   0.57790
C          C       0.13350   0.31590   0.57790
C          C       0.05250   0.31580   0.49690
C          C       0.21770   0.42120   0.55560
C          C       0.07730   0.28070   0.55560
C          C       0.03970   0.28080   0.51810
C          C       0.22860   0.34830   0.63400
C          C       0.14850   0.35130   0.55700
O          O       0.06480   0.40020   0.38170
O          O       0.13690   0.46780   0.46250
O          O       0.92440   0.25970   0.38170
O          O       0.19260   0.25980   0.64990
O          O       0.93740   0.26840   0.46250
O          O       0.12040   0.26830   0.64560
O          O       0.40370   0.36090   0.66380
O          O       0.01170   0.36100   0.27180
C          C       0.01860   0.11640   0.98650
C          C       0.97080   0.07040   0.93760
C          C       0.93310   0.03110   0.93880
C          C       0.93510   0.03300   0.98770
C          C       0.88620   0.98700   0.88850
C          C       0.81290   0.91080   0.98650
C          C       0.81000   0.90960   0.93760
C          C       0.85050   0.94850   0.93880
C          C       0.89750   0.99540   0.98770
C          C       0.84440   0.94520   0.88850
C          C       0.76770   0.86430   0.88850
O          O       0.01640   0.14370   0.02580
O          O       0.06560   0.12840   0.98630
O          O       0.82510   0.95230   0.02580
O          O       0.80080   0.86360   0.98630
C          C       0.96700   0.06360   0.88850
C          C       0.71500   0.81280   0.79050
C          C       0.92050   0.01840   0.79050
C          C       0.76090   0.86040   0.83940
C          C       0.92180   0.02130   0.83940
C          C       0.80030   0.89820   0.83840
C          C       0.88300   0.98090   0.83840
C          C       0.79840   0.89620   0.78950
C          C       0.83600   0.93390   0.78950
O          O       0.68770   0.81490   0.75120
O          O       0.87910   0.00630   0.75120
O          O       0.70300   0.76570   0.79070
O          O       0.96770   0.03050   0.79070
C          C       0.29820   0.55590   0.60820
C          C       0.26240   0.55600   0.57230
C          C       0.31250   0.55590   0.52220
C          C       0.34830   0.55600   0.55800
O          O       0.33940   0.54560   0.59920
O          O       0.26100   0.54570   0.52080
C          C       0.44450   0.49450   0.79050
C          C       0.44730   0.49560   0.83940
C          C       0.40680   0.45680   0.83840
C          C       0.36000   0.41000   0.78950
C          C       0.41300   0.46010   0.88850
C          C       0.48970   0.54100   0.88850
C          C       0.28660   0.33490   0.83940
C          C       0.32440   0.37420   0.83840
C          C       0.32230   0.37230   0.78950
C          C       0.29020   0.34160   0.88850
O          O       0.43240   0.45300   0.75120
O          O       0.45660   0.54180   0.79070
C          C       0.33680   0.38690   0.98650
C          C       0.54240   0.59250   0.98650
C          C       0.33560   0.38400   0.93760
C          C       0.49640   0.54480   0.93760
C          C       0.37450   0.42450   0.93880
C          C       0.45710   0.50710   0.93880
C          C       0.42140   0.47150   0.98770
C          C       0.45900   0.50910   0.98770
C          C       0.37120   0.41840   0.88850
O          O       0.37830   0.39890   0.02580
O          O       0.28960   0.37480   0.98630
O          O       0.55440   0.63960   0.98630
O          O       0.56970   0.59040   0.02580
C          C       0.99500   0.84940   0.20470
C          C       0.95920   0.84940   0.16900
C          C       0.90910   0.84940   0.21900
C          C       0.94490   0.84940   0.25480
O          O       0.99640   0.85960   0.25620
O          O       0.91810   0.85970   0.17780
C          C       0.81300   0.28900   0.36460
C          C       0.81000   0.33500   0.36300
C          C       0.85050   0.37430   0.36450
C          C       0.89760   0.37240   0.36460
C          C       0.84450   0.41830   0.36160
C          C       0.76770   0.34170   0.36590
C          C       0.01850   0.49450   0.36460
C          C       0.92070   0.59250   0.36460
C          C       0.71500   0.38690   0.36460
C          C       0.97090   0.49580   0.36300
C          C       0.92180   0.54480   0.36300
C          C       0.76100   0.38400   0.36300
C          C       0.93310   0.45690   0.36450
C          C       0.88290   0.50710   0.36450
C          C       0.80030   0.42450   0.36450
C          C       0.93520   0.41000   0.36460
C          C       0.83610   0.50910   0.36460
C          C       0.79850   0.47150   0.36460
C          C       0.88620   0.46010   0.36160
C          C       0.96710   0.54110   0.36590
O          O       0.01650   0.45300   0.33520
O          O       0.82500   0.26170   0.33520
O          O       0.80080   0.27700   0.39970
O          O       0.87910   0.59040   0.33520
O          O       0.68770   0.39890   0.33520
O          O       0.06560   0.54180   0.39970
O          O       0.96780   0.63960   0.39970
O          O       0.70300   0.37470   0.39970
C          C       0.98190   0.92230   0.55800
C          C       0.98200   0.88650   0.52220
C          C       0.98200   0.83630   0.57230
C          C       0.98200   0.87210   0.60820
O          O       0.97160   0.91330   0.59920
O          O       0.97170   0.83500   0.52080
C          C       0.84700   0.87820   0.63680
C          C       0.81060   0.81850   0.61610
C          C       0.81320   0.77880   0.57790
C          C       0.84730   0.79170   0.55560
C          C       0.77420   0.80250   0.63400
C          C       0.77730   0.72240   0.55700
C          C       0.84700   0.67280   0.43140
C          C       0.70150   0.52720   0.43140
C          C       0.70140   0.73260   0.63680
C          C       0.81060   0.65690   0.45450
C          C       0.74040   0.58670   0.45450
C          C       0.74040   0.74830   0.61610
C          C       0.81330   0.69790   0.49690
C          C       0.74200   0.62650   0.49690
C          C       0.74190   0.70750   0.57790
C          C       0.84720   0.75410   0.51810
C          C       0.70690   0.61370   0.51810
C          C       0.70690   0.65130   0.55560
C          C       0.77430   0.60280   0.43420
C          C       0.77740   0.68280   0.51730
Mg         Mg      0.85930   0.64870   0.33460
O          O       0.82620   0.90690   0.64990
O          O       0.89400   0.89400   0.64560
O          O       0.82630   0.63870   0.38170
O          O       0.68590   0.49840   0.38170
O          O       0.68580   0.76650   0.64990
O          O       0.89400   0.71090   0.46250
O          O       0.69440   0.51130   0.46250
O          O       0.69440   0.69440   0.64560
O          O       0.78710   0.58590   0.27150
C          C       0.54240   0.30060   0.27830
C          C       0.49640   0.25170   0.23060
C          C       0.45710   0.25290   0.19300
C          C       0.45900   0.30180   0.19500
C          C       0.48970   0.20270   0.22690
C          C       0.33680   0.30060   0.07270
C          C       0.33560   0.25170   0.06980
C          C       0.37460   0.25290   0.11030
C          C       0.42150   0.30180   0.15740
O          O       0.56970   0.34000   0.27620
O          O       0.55440   0.30050   0.32540
O          O       0.37830   0.34000   0.08490
O          O       0.28960   0.30050   0.06060
C          C       0.41300   0.20260   0.14590
C          C       0.23900   0.10480   0.97480
C          C       0.44450   0.10470   0.18050
C          C       0.28670   0.15370   0.02090
C          C       0.44730   0.15370   0.18170
C          C       0.32440   0.15250   0.06020
C          C       0.40690   0.15250   0.14270
C          C       0.32230   0.10360   0.05830
C          C       0.35990   0.10360   0.09580
C          C       0.37120   0.20250   0.10420
C          C       0.29030   0.20270   0.02760
O          O       0.24100   0.06540   0.94760
O          O       0.43250   0.06540   0.13890
O          O       0.19180   0.10480   0.96280
O          O       0.45660   0.10490   0.22760
C          C       0.71500   0.67880   0.07270
C          C       0.76110   0.67710   0.06980
C          C       0.80030   0.67870   0.11030
C          C       0.79850   0.67880   0.15740
C          C       0.84440   0.67580   0.10420
C          C       0.76770   0.68010   0.02760
C          C       0.92060   0.67870   0.27830
C          C       0.01850   0.67880   0.18050
C          C       0.81300   0.67880   0.97480
C          C       0.92180   0.67710   0.23060
C          C       0.97090   0.67710   0.18170
C          C       0.81010   0.67710   0.02090
C          C       0.88290   0.67870   0.19300
C          C       0.93310   0.67870   0.14270
C          C       0.85060   0.67870   0.06020
C          C       0.83600   0.67880   0.19500
C          C       0.93510   0.67880   0.09580
C          C       0.89750   0.67880   0.05830
C          C       0.88620   0.67580   0.14590
C          C       0.96710   0.68010   0.22690
O          O       0.82500   0.64940   0.94760
O          O       0.87910   0.64940   0.27620
O          O       0.70300   0.71390   0.06060
O          O       0.01650   0.64940   0.13890
O          O       0.96780   0.71390   0.32540
O          O       0.06560   0.71390   0.22760
O          O       0.80080   0.71390   0.96280
O          O       0.68770   0.64940   0.08490
C          C       0.57860   0.87220   0.20470
C          C       0.57860   0.83640   0.16900
O          O       0.62870   0.91330   0.25620
O          O       0.62870   0.83500   0.17780
C          C       0.27540   0.51890   0.25480
C          C       0.27540   0.48310   0.21900
C          C       0.27540   0.53320   0.16900
C          C       0.27540   0.56890   0.20470
C          C       0.30430   0.42100   0.63680
C          C       0.30420   0.13000   0.34580
C          C       0.24460   0.09090   0.32250
C          C       0.20490   0.08940   0.28010
C          C       0.21770   0.12460   0.25910
C          C       0.22860   0.05700   0.34280
C          C       0.14850   0.05410   0.25970
C          C       0.09880   0.13000   0.14040
C          C       0.95330   0.98440   0.14040
C          C       0.15860   0.98440   0.34580
C          C       0.08310   0.09100   0.16090
C          C       0.01280   0.02080   0.16090
C          C       0.17430   0.02080   0.32250
C          C       0.12390   0.08950   0.19910
C          C       0.05260   0.01810   0.19910
C          C       0.13360   0.01810   0.28010
C          C       0.18010   0.12450   0.22140
C          C       0.03970   0.98420   0.22140
C          C       0.07730   0.98420   0.25910
C          C       0.02890   0.05710   0.14300
C          C       0.10900   0.05410   0.22020
C          C       0.26240   0.88650   0.24190
C          C       0.17150   0.67280   0.10680
C          C       0.19470   0.65700   0.07040
C          C       0.23710   0.69790   0.07310
C          C       0.25820   0.75400   0.10700
C          C       0.17440   0.60290   0.03420
C          C       0.25750   0.68280   0.03710
C          C       0.29830   0.92230   0.24190
C          C       0.34840   0.87220   0.24190
C          C       0.31250   0.83640   0.24190
C          C       0.37690   0.87820   0.10680
C          C       0.37690   0.73260   0.96130
C          C       0.17150   0.52720   0.96130
C          C       0.35630   0.81860   0.07040
C          C       0.35640   0.74840   0.00020
C          C       0.19470   0.58680   0.00020
C          C       0.31810   0.77890   0.07310
C          C       0.31820   0.70750   0.00170
C          C       0.23710   0.62650   0.00170
C          C       0.29580   0.79160   0.10700
C          C       0.29580   0.65130   0.96670
C          C       0.25820   0.61370   0.96670
C          C       0.37420   0.80260   0.03420
C          C       0.29720   0.72250   0.03710
C          C       0.95930   0.48310   0.53530
C          C       0.99500   0.51890   0.53530
C          C       0.94490   0.56900   0.53530
C          C       0.90910   0.53310   0.53530
C          C       0.70140   0.95080   0.41850
C          C       0.74050   0.93030   0.43420
C          C       0.74190   0.89200   0.39330
C          C       0.70680   0.86970   0.33720
C          C       0.77430   0.94810   0.48840
C          C       0.77730   0.87100   0.40830
C          C       0.54240   0.01850   0.41240
C          C       0.49650   0.02140   0.41420
C          C       0.45710   0.98080   0.41250
C          C       0.45900   0.93390   0.41240
C          C       0.41300   0.98700   0.41540
C          C       0.48960   0.06370   0.41110
C          C       0.67880   0.88650   0.21900
C          C       0.67880   0.92230   0.25480
C          C       0.70150   0.74550   0.21300
C          C       0.84700   0.74550   0.35870
C          C       0.84700   0.95090   0.56400
C          C       0.74040   0.76870   0.27260
C          C       0.81070   0.76870   0.34280
C          C       0.81060   0.93030   0.50440
C          C       0.74190   0.81110   0.31230
C          C       0.81340   0.81110   0.38370
C          C       0.81330   0.89210   0.46470
C          C       0.70690   0.83220   0.29960
C          C       0.84730   0.83220   0.43990
C          C       0.84720   0.86980   0.47760
C          C       0.77430   0.74830   0.28860
C          C       0.77740   0.83150   0.36870
C          C       0.33690   0.81290   0.41240
C          C       0.23890   0.91070   0.41240
C          C       0.44450   0.11630   0.41240
C          C       0.33560   0.86050   0.41420
C          C       0.28660   0.90960   0.41420
C          C       0.44740   0.07030   0.41420
C          C       0.37450   0.89830   0.41250
C          C       0.32420   0.94840   0.41250
C          C       0.40690   0.03110   0.41250
C          C       0.42140   0.89630   0.41240
C          C       0.32230   0.99530   0.41240
C          C       0.36000   0.03300   0.41240
C          C       0.37120   0.94520   0.41540
C          C       0.29030   0.86430   0.41110
Mg         Mg      0.19810   0.44540   0.88850
Mg         Mg      0.07470   0.64860   0.11910
Mg         Mg      0.07470   0.20270   0.10400
Mg         Mg      0.19820   0.20270   0.13140
Mg         Mg      0.84410   0.97210   0.10400
Mg         Mg      0.19820   0.52930   0.45800
Mg         Mg      0.19820   0.77220   0.21510
Mg         Mg      0.85930   0.98720   0.67300
Mg         Mg      0.18270   0.97200   0.44260
Mg         Mg      0.41330   0.20270   0.44260
O          O       0.13250   0.39540   0.88850
O          O       0.12190   0.49840   0.94560
O          O       0.39020   0.76660   0.94560
O          O       0.20270   0.51140   0.95420
O          O       0.38580   0.69440   0.95420
O          O       0.01170   0.20240   0.11320
O          O       0.13250   0.20270   0.08130
O          O       0.40370   0.20230   0.50520
O          O       0.06480   0.14560   0.12710
O          O       0.33310   0.14550   0.39530
O          O       0.13700   0.13700   0.13160
O          O       0.32000   0.13700   0.31450
O          O       0.33300   0.40020   0.64990
O          O       0.32000   0.46800   0.64560
O          O       0.24570   0.04430   0.50520
O          O       0.19270   0.00520   0.39530
O          O       0.92450   0.00520   0.12710
O          O       0.12040   0.93730   0.31450
O          O       0.93740   0.93740   0.13160
O          O       0.28570   0.57040   0.25620
O          O       0.28570   0.49200   0.17780
O          O       0.26100   0.83500   0.23150
O          O       0.12190   0.63880   0.08600
O          O       0.20280   0.71100   0.15390
O          O       0.33950   0.91340   0.23150
O          O       0.39010   0.90700   0.08600
O          O       0.38570   0.89400   0.15390
O          O       0.91810   0.49200   0.54550
O          O       0.99640   0.57030   0.54550
O          O       0.68580   0.96400   0.45240
O          O       0.69440   0.95960   0.38020
O          O       0.56970   0.00630   0.44180
O          O       0.55440   0.03050   0.37730
O          O       0.68590   0.69590   0.18420
O          O       0.82630   0.69580   0.32460
O          O       0.82620   0.96400   0.59280
O          O       0.69450   0.77680   0.19730
O          O       0.89400   0.77660   0.39680
O          O       0.89400   0.95960   0.57990
O          O       0.37830   0.81490   0.44180
O          O       0.24100   0.95230   0.44180
O          O       0.43240   0.14370   0.44180
O          O       0.28970   0.76580   0.37730
O          O       0.19190   0.86350   0.37730
O          O       0.45660   0.12840   0.37730
O          O       0.18890   0.14210   0.06450
O          O       0.24940   0.58690   0.44860
O          O       0.24950   0.76280   0.27280
Mg         Mg      0.62860   0.95970   0.31900
Mg         Mg      0.62880   0.77220   0.13140
O          O       0.62870   0.00980   0.38470
O          O       0.62870   0.70640   0.08130
Mg         Mg      0.05920   0.63310   0.56190
Mg         Mg      0.87160   0.44560   0.56190
Mg         Mg      0.38580   0.52920   0.64560
Mg         Mg      0.05920   0.87600   0.31900
Mg         Mg      0.62870   0.98730   0.44260
Mg         Mg      0.87160   0.87610   0.13140
Mg         Mg      0.30210   0.63310   0.31900
Mg         Mg      0.30210   0.44550   0.13140
Mg         Mg      0.38580   0.95980   0.21510
Mg         Mg      0.62880   0.64870   0.10400
Mg         Mg      0.95530   0.77210   0.45800
Mg         Mg      0.95530   0.95970   0.64560
O          O       0.18880   0.37850   0.82790
O          O       0.24950   0.26330   0.12500
O          O       0.43600   0.51360   0.69570
O          O       0.13250   0.51360   0.39230
O          O       0.12480   0.89170   0.38470
O          O       0.85370   0.04440   0.11320
O          O       0.82150   0.89160   0.08130
O          O       0.85370   0.20300   0.27180
O          O       0.00800   0.14200   0.65200
O          O       0.78690   0.97790   0.66340
O          O       0.93970   0.00990   0.69570
O          O       0.93970   0.70640   0.39230
O          O       0.62900   0.97800   0.50550
O          O       0.31760   0.69880   0.38470
O          O       0.31770   0.39550   0.08130
O          O       0.01190   0.58580   0.04690
O          O       0.13250   0.70650   0.19950
O          O       0.40390   0.97780   0.04690
O          O       0.43600   0.00990   0.19950
O          O       0.82160   0.39550   0.57750
O          O       0.12480   0.69870   0.57750
O          O       0.62870   0.58580   0.11340
O          O       0.01200   0.42770   0.88890
O          O       0.24940   0.43920   0.94910
O          O       0.40400   0.81970   0.88890
O          O       0.43590   0.69890   0.88850
O          O       0.45280   0.64260   0.94910
O          O       0.45280   0.26330   0.32840
O          O       0.39220   0.58680   0.71250
O          O       0.45270   0.58680   0.65200
O          O       0.18880   0.58690   0.50930
O          O       0.06860   0.81850   0.26790
O          O       0.00800   0.81850   0.32840
O          O       0.86530   0.81850   0.06450
O          O       0.80460   0.81850   0.12500
O          O       0.86520   0.26330   0.50930
O          O       0.24570   0.20290   0.66380
O          O       0.80460   0.14210   0.44860
O          O       0.06860   0.26320   0.71250
O          O       0.01290   0.02670   0.65200
O          O       0.01280   0.96610   0.71250
O          O       0.01290   0.82340   0.44860
O          O       0.01290   0.76280   0.50930
O          O       0.68930   0.43920   0.50930
O          O       0.56810   0.96620   0.26790
O          O       0.24450   0.58200   0.32840
O          O       0.24450   0.64260   0.26790
O          O       0.24450   0.37860   0.12500
O          O       0.24450   0.43920   0.06450
O          O       0.18880   0.82340   0.27280
O          O       0.39220   0.02680   0.27280
O          O       0.45290   0.96620   0.27280
O          O       0.24550   0.97780   0.88850
O          O       0.06870   0.02680   0.94910
O          O       0.00810   0.96620   0.82790
O          O       0.86530   0.82340   0.94910
O          O       0.80460   0.76280   0.82790
O          O       0.86520   0.37860   0.50440
O          O       0.80460   0.43920   0.50440
O          O       0.06860   0.58200   0.50440
O          O       0.00800   0.64260   0.50440
O          O       0.68940   0.02680   0.32840
O          O       0.56820   0.76280   0.06450
O          O       0.68930   0.82340   0.12500
O          O       0.68930   0.64250   0.71250
H          H       0.46970   0.85710   0.51440
H          H       0.30390   0.55180   0.96520
H          H       0.32880   0.51410   0.95250
H          H       0.27950   0.52750   0.81180
H          H       0.35630   0.60420   0.96520
H          H       0.31720   0.50250   0.82460
H          H       0.26490   0.45010   0.82460
H          H       0.38120   0.56650   0.95250
H          H       0.95340   0.85350   0.81180
H          H       0.92860   0.89130   0.82460
H          H       0.90110   0.80110   0.81180
H          H       0.87620   0.83880   0.82460
H          H       0.19050   0.52280   0.83430
H          H       0.00190   0.43200   0.74460
H          H       0.00300   0.52290   0.64680
H          H       0.06670   0.58660   0.64680
H          H       0.96490   0.33520   0.74830
H          H       0.90140   0.33520   0.68510
H          H       0.42520   0.72650   0.55250
H          H       0.26130   0.72100   0.52120
H          H       0.29260   0.72650   0.68510
H          H       0.35600   0.72640   0.74830
H          H       0.48860   0.72640   0.61570
H          H       0.51460   0.72110   0.77430
H          H       0.66030   0.39220   0.40440
H          H       0.59340   0.35540   0.37200
H          H       0.99620   0.20270   0.77430
H          H       0.83220   0.07000   0.61570
H          H       0.76880   0.07000   0.55250
H          H       0.74290   0.20270   0.52120
H          H       0.59730   0.68690   0.69920
H          H       0.66420   0.71930   0.73570
H          H       0.57460   0.58670   0.51420
H          H       0.48480   0.68560   0.51530
H          H       0.38700   0.58670   0.32660
H          H       0.38700   0.52290   0.26280
H          H       0.57470   0.52290   0.45040
H          H       0.48490   0.43200   0.26170
H          H       0.35630   0.27940   0.29000
H          H       0.30390   0.27940   0.23760
H          H       0.38120   0.26660   0.25230
H          H       0.32880   0.26660   0.19990
H          H       0.65760   0.85720   0.70210
H          H       0.64030   0.82090   0.63330
H          H       0.23530   0.82080   0.76180
H          H       0.01270   0.96100   0.32660
H          H       0.11160   0.05870   0.51530
H          H       0.01270   0.14850   0.51420
H          H       0.94890   0.14860   0.45040
H          H       0.94890   0.96100   0.26280
H          H       0.85800   0.05870   0.26170
H          H       0.15240   0.06250   0.61570
H          H       0.14700   0.08840   0.77430
H          H       0.15240   0.92990   0.74830
H          H       0.15250   0.86660   0.68510
H          H       0.15250   0.99910   0.55250
H          H       0.14710   0.83530   0.52120
H          H       0.01260   0.82820   0.83430
H          H       0.11160   0.82940   0.74460
H          H       0.01270   0.64080   0.64680
H          H       0.94900   0.57700   0.64680
H          H       0.94880   0.76450   0.83430
H          H       0.85800   0.57590   0.74460
H          H       0.76130   0.99920   0.16120
H          H       0.49610   0.86660   0.02860
H          H       0.49610   0.93000   0.09210
H          H       0.76130   0.06260   0.22470
H          H       0.62870   0.83530   0.00270
H          H       0.62870   0.08850   0.25600
H          H       0.97780   0.27940   0.56370
H          H       0.94010   0.26660   0.58870
H          H       0.03020   0.27940   0.61610
H          H       0.99250   0.26650   0.64110
H          H       0.57470   0.76460   0.20870
H          H       0.48490   0.57590   0.11790
H          H       0.38700   0.57700   0.20870
H          H       0.38700   0.64080   0.27260
H          H       0.57460   0.82840   0.27260
H          H       0.48480   0.82940   0.37140
H          H       0.10490   0.47540   0.02860
H          H       0.11030   0.31690   0.00270
H          H       0.10490   0.34280   0.16120
H          H       0.10490   0.40620   0.22470
H          H       0.10490   0.53880   0.09210
H          H       0.11030   0.57010   0.25600
H          H       0.03020   0.93030   0.96520
H          H       0.97780   0.87790   0.96520
H          H       0.99250   0.95520   0.95250
H          H       0.94010   0.90280   0.95250
H          H       0.81820   0.71860   0.92000
H          H       0.14140   0.04700   0.89260
H          H       0.95350   0.12600   0.53940
H          H       0.90110   0.12590   0.48700
H          H       0.92850   0.13870   0.57710
H          H       0.87620   0.13880   0.52470
H          H       0.78670   0.17110   0.37290
H          H       0.10980   0.16720   0.70030
H          H       0.19060   0.81870   0.13020
H          H       0.06680   0.88250   0.94270
H          H       0.00300   0.81870   0.94270
H          H       0.00190   0.71980   0.03240
H          H       0.81520   0.54820   0.85960
H          H       0.88390   0.58450   0.87700
H          H       0.55200   0.47500   0.48700
H          H       0.56480   0.45010   0.52470
H          H       0.55190   0.52740   0.53940
H          H       0.56470   0.50250   0.57710
H          H       0.70550   0.55170   0.56370
H          H       0.69260   0.51400   0.58870
H          H       0.70540   0.60410   0.61610
H          H       0.69260   0.56640   0.64110
H          H       0.76130   0.47530   0.68510
H          H       0.76130   0.53870   0.74830
H          H       0.49610   0.40610   0.61570
H          H       0.49610   0.34280   0.55250
H          H       0.62870   0.31690   0.52120
H          H       0.62870   0.57000   0.77430
H          H       0.26490   0.13880   0.13610
H          H       0.27960   0.12600   0.21340
H          H       0.31730   0.13880   0.18850
H          H       0.14580   0.34660   0.26170
H          H       0.30850   0.44430   0.51420
H          H       0.30850   0.25680   0.32660
H          H       0.39940   0.34650   0.51530
H          H       0.19060   0.44440   0.50460
H          H       0.00190   0.34650   0.40560
H          H       0.00300   0.25680   0.50460
H          H       0.06680   0.25660   0.56830
H          H       0.96480   0.06260   0.02110
H          H       0.90150   0.99910   0.02110
H          H       0.99610   0.08840   0.88850
H          H       0.83230   0.92990   0.75590
H          H       0.76880   0.86640   0.75590
H          H       0.27960   0.52880   0.61610
H          H       0.31730   0.59140   0.64110
H          H       0.30390   0.52880   0.48700
H          H       0.35630   0.52880   0.53940
H          H       0.32880   0.59140   0.52470
H          H       0.38110   0.59130   0.57710
H          H       0.26490   0.59140   0.58870
H          H       0.35600   0.40610   0.75590
H          H       0.29270   0.34260   0.75590
H          H       0.26140   0.31680   0.88850
H          H       0.48860   0.53880   0.02110
H          H       0.42520   0.47530   0.02110
H          H       0.03020   0.87660   0.21340
H          H       0.99260   0.81400   0.18850
H          H       0.90110   0.87660   0.23760
H          H       0.95350   0.87660   0.29000
H          H       0.97780   0.87660   0.16090
H          H       0.87630   0.81400   0.19990
H          H       0.92860   0.81400   0.25230
H          H       0.94010   0.81400   0.13610
H          H       0.90140   0.34280   0.36470
H          H       0.74300   0.31690   0.37020
H          H       0.76890   0.47540   0.36470
H          H       0.83220   0.53880   0.36470
H          H       0.96480   0.40620   0.36470
H          H       0.99620   0.57010   0.37020
H          H       0.95480   0.93020   0.53940
H          H       0.01730   0.95510   0.57710
H          H       0.95480   0.80110   0.56370
H          H       0.95490   0.85350   0.61610
H          H       0.95480   0.87780   0.48700
H          H       0.01740   0.83890   0.58870
H          H       0.01740   0.89130   0.64110
H          H       0.01740   0.90270   0.52470
H          H       0.87040   0.82840   0.56830
H          H       0.77250   0.82940   0.65910
H          H       0.68280   0.64080   0.56830
H          H       0.68280   0.57700   0.50460
H          H       0.87040   0.76460   0.50460
H          H       0.77260   0.57580   0.40560
H          H       0.22720   0.47500   0.81180
H          H       0.25430   0.58660   0.83430
H          H       0.25540   0.68550   0.74460
H          H       0.25440   0.85720   0.72930
H          H       0.78150   0.68620   0.85310
H          H       0.11100   0.01370   0.85250
H          H       0.25440   0.88250   0.13020
H          H       0.25550   0.97340   0.03240
H          H       0.22720   0.12600   0.16090
H          H       0.24470   0.25680   0.26280
H          H       0.24470   0.44440   0.45040
H          H       0.36180   0.32940   0.63350
H          H       0.22720   0.52880   0.56370
H          H       0.81680   0.23800   0.40740
H          H       0.48860   0.33530   0.22470
H          H       0.51460   0.20270   0.25600
H          H       0.42530   0.33530   0.16120
H          H       0.35600   0.07010   0.09210
H          H       0.29260   0.07010   0.02860
H          H       0.26140   0.20270   0.00270
H          H       0.76890   0.67890   0.16120
H          H       0.74300   0.68430   0.00270
H          H       0.90140   0.67890   0.02860
H          H       0.96480   0.67890   0.09210
H          H       0.83220   0.67890   0.22470
H          H       0.99610   0.68430   0.25600
H          H       0.55200   0.85360   0.21340
H          H       0.56480   0.89130   0.18850
H          H       0.55200   0.80120   0.16090
H          H       0.56490   0.83890   0.13610
H          H       0.30260   0.52740   0.29000
H          H       0.30260   0.55170   0.16090
H          H       0.30260   0.60420   0.21340
H          H       0.30260   0.47500   0.23760
H          H       0.06690   0.96100   0.27260
H          H       0.00300   0.96100   0.20870
H          H       0.19070   0.14850   0.20870
H          H       0.00200   0.05880   0.11790
H          H       0.26490   0.90280   0.27730
H          H       0.14580   0.57590   0.03240
H          H       0.35640   0.85360   0.21470
H          H       0.30400   0.80120   0.21470
H          H       0.27960   0.93030   0.21470
H          H       0.38130   0.89130   0.27730
H          H       0.32890   0.83890   0.27730
H          H       0.31740   0.95520   0.27730
H          H       0.30850   0.64080   0.94270
H          H       0.30850   0.82840   0.13020
H          H       0.39940   0.82950   0.03240
H          H       0.97780   0.47510   0.56250
H          H       0.94010   0.45020   0.49990
H          H       0.95350   0.60420   0.56250
H          H       0.90110   0.55180   0.56250
H          H       0.03020   0.52750   0.56250
H          H       0.92860   0.56650   0.49990
H          H       0.87630   0.51410   0.49990
H          H       0.99250   0.50260   0.49990
H          H       0.68290   0.88250   0.32660
H          H       0.77260   0.97330   0.51530
H          H       0.48870   0.93000   0.41230
H          H       0.51450   0.08850   0.40700
H          H       0.70550   0.87790   0.23760
H          H       0.70540   0.93030   0.29000
H          H       0.69260   0.90280   0.19990
H          H       0.69260   0.95520   0.25230
H          H       0.87050   0.88250   0.51420
H          H       0.87040   0.81870   0.45040
H          H       0.68280   0.81870   0.26280
H          H       0.77260   0.71980   0.26170
H          H       0.35590   0.06260   0.41230
H          H       0.29260   0.99910   0.41230
H          H       0.42520   0.86660   0.41230
H          H       0.26130   0.83530   0.40700
H          H       0.11320   0.36060   0.85700
H          H       0.09070   0.16470   0.05950
H          H       0.24520   0.56750   0.40870
H          H       0.23860   0.76660   0.30430
H          H       0.22000   0.13150   0.07780
H          H       0.14890   0.10650   0.04380
H          H       0.66480   0.72520   0.07880
H          H       0.24000   0.50250   0.25230
H          H       0.24010   0.51410   0.13610
H          H       0.24010   0.56650   0.18850
H          H       0.24010   0.45020   0.19990
H          H       0.25430   0.44430   0.56830
H          H       0.25540   0.34650   0.65910
H          H       0.25450   0.14860   0.27260
H          H       0.25540   0.05870   0.37140
H          H       0.22720   0.87790   0.21470
H          H       0.24470   0.76460   0.13020
H          H       0.24480   0.57700   0.94270
H          H       0.25470   0.04360   0.54290
H          H       0.28120   0.05270   0.50010
H          H       0.81530   0.17420   0.23410
H          H       0.14770   0.39080   0.92390
H          H       0.44220   0.23110   0.54290
H          H       0.00270   0.23120   0.10350
H          H       0.29120   0.27390   0.14900
H          H       0.14430   0.23420   0.73050
H          H       0.74290   0.83520   0.88850
H          H       0.51460   0.57010   0.88850
H          H       0.28600   0.60250   0.47580
H          H       0.81620   0.13280   0.47580
H          H       0.77680   0.15660   0.45230
H          H       0.26390   0.58620   0.36830
H          H       0.26380   0.45430   0.04380
H          H       0.28600   0.79000   0.28830
H          H       0.71990   0.84940   0.16020
H          H       0.70120   0.79970   0.10030
H          H       0.69850   0.61530   0.70090
H          H       0.72500   0.68240   0.73320
H          H       0.47870   0.81420   0.54090
H          H       0.65730   0.41770   0.26260
H          H       0.58790   0.40030   0.23600
H          H       0.58630   0.36500   0.47510
H          H       0.54070   0.38960   0.45920
H          H       0.46970   0.41780   0.07510
H          H       0.50200   0.46920   0.14390
H          H       0.58650   0.57390   0.68370
H          H       0.54560   0.60160   0.66200
H          H       0.42390   0.57370   0.84610
H          H       0.35380   0.54390   0.80050
H          H       0.81500   0.41790   0.72930
H          H       0.86690   0.40040   0.73870
H          H       0.41780   0.13110   0.29160
H          H       0.35200   0.10660   0.23880
H          H       0.97410   0.36190   0.26320
H          H       0.01650   0.35240   0.23620
H          H       0.43070   0.35240   0.65050
H          H       0.78790   0.57720   0.23390
H          H       0.77840   0.55020   0.27630
H          H       0.66520   0.04950   0.40740
H          H       0.59290   0.68450   0.04130
H          H       0.14460   0.68710   0.21490
H          H       0.11210   0.72160   0.21920
H          H       0.97420   0.57700   0.04770
H          H       0.01050   0.59610   0.01520
H          H       0.30220   0.71820   0.37260
H          H       0.29800   0.68380   0.40500
H          H       0.95510   0.71860   0.37290
H          H       0.95940   0.68620   0.40740
H          H       0.11500   0.89260   0.41640
H          H       0.21990   0.39180   0.81730
H          H       0.19270   0.35070   0.84250
H          H       0.78770   0.98760   0.70190
H          H       0.77870   0.00510   0.65010
H          H       0.86710   0.24350   0.27690
H          H       0.59990   0.54810   0.07490
H          H       0.66910   0.59070   0.12670
H          H       0.47070   0.52910   0.69900
H          H       0.44050   0.53340   0.73570
H          H       0.30220   0.36070   0.07800
H          H       0.29790   0.39080   0.04120
H          H       0.43920   0.04470   0.21490
H          H       0.47600   0.01460   0.21920
H          H       0.81520   0.04360   0.10350
H          H       0.88400   0.07600   0.15510
H          H       0.81820   0.87620   0.04650
H          H       0.78150   0.87190   0.07660
H          H       0.41350   0.01630   0.04770
H          H       0.43090   0.96440   0.03830
H          H       0.23870   0.24870   0.08270
H          H       0.14420   0.68670   0.56210
H          H       0.10970   0.71910   0.55780
H          H       0.60030   0.98760   0.51440
H          H       0.61740   0.93610   0.49540
H          H       0.11320   0.52910   0.40440
H          H       0.14760   0.53340   0.37200
H          H       0.78670   0.39210   0.56210
H          H       0.81680   0.35540   0.55780
H          H       0.95510   0.01320   0.73050
H          H       0.95940   0.04980   0.70030
H          H       0.96610   0.13140   0.62800
H          H       0.01220   0.10640   0.63700
H          H       0.37140   0.60250   0.70110
H          H       0.37720   0.56750   0.73320
H          H       0.44120   0.60250   0.63110
H          H       0.48050   0.61840   0.69430
H          H       0.21610   0.60250   0.54570
H          H       0.19270   0.61850   0.49850
H          H       0.04140   0.80280   0.23130
H          H       0.10860   0.83780   0.27200
H          H       0.97140   0.80280   0.30120
H          H       0.01870   0.78680   0.32460
H          H       0.88620   0.80280   0.07590
H          H       0.82280   0.78690   0.03660
H          H       0.81610   0.80280   0.14590
H          H       0.78400   0.83770   0.14000
H          H       0.88610   0.27260   0.54570
H          H       0.88030   0.29890   0.50500
H          H       0.02850   0.01510   0.63110
H          H       0.99350   0.04730   0.63700
H          H       0.02860   0.94520   0.70110
H          H       0.04450   0.00850   0.74040
H          H       0.02850   0.85990   0.47580
H          H       0.04450   0.81260   0.45240
H          H       0.02850   0.79000   0.54570
H          H       0.99370   0.72290   0.50500
H          H       0.55850   0.98860   0.28860
H          H       0.58280   0.98410   0.24620
H          H       0.22880   0.54540   0.30120
H          H       0.22880   0.61540   0.23130
H          H       0.21290   0.63880   0.27850
H          H       0.22880   0.39010   0.14590
H          H       0.21290   0.35080   0.08270
H          H       0.22880   0.46010   0.07590
H          H       0.21610   0.85990   0.28830
H          H       0.14890   0.81910   0.25340
H          H       0.37140   0.01520   0.28830
H          H       0.43450   0.05460   0.30430
H          H       0.44120   0.94530   0.28830
H          H       0.47330   0.95110   0.25340
H          H       0.09910   0.05870   0.95870
H          H       0.03220   0.03000   0.93450
H          H       0.88610   0.85990   0.95850
H          H       0.82290   0.81270   0.93470
H          H       0.88620   0.39010   0.48860
H          H       0.88040   0.35800   0.52360
H          H       0.81610   0.46000   0.48860
H          H       0.77690   0.39680   0.47270
H          H       0.04140   0.54540   0.48860
H          H       0.06490   0.59270   0.47270
H          H       0.97150   0.61530   0.48860
H          H       0.01220   0.68250   0.52360
H          H       0.55880   0.79000   0.07590
H          H       0.58260   0.76660   0.03660
H          H       0.70040   0.06340   0.36330
H          H       0.72490   0.02210   0.33490
H          H       0.09660   0.45210   0.42970
H          H       0.14520   0.43470   0.45880
H          H       0.47660   0.23680   0.40450
H          H       0.44260   0.16860   0.37050
H          H       0.23050   0.93620   0.85880
H          H       0.26760   0.00550   0.87820
H          H       0.14640   0.23830   0.07680
H          H       0.26040   0.23270   0.65210
H          H       0.27820   0.21330   0.70200
H          H       0.40070   0.16560   0.50590
H          H       0.48940   0.67750   0.96010
H          H       0.44820   0.64900   0.98470
H          H       0.47670   0.71870   0.92270
H          H       0.44260   0.68460   0.85440
H          H       0.36610   0.81420   0.88800
H          H       0.43780   0.85710   0.92540
H          H       0.22560   0.41350   0.96020
H          H       0.27110   0.42130   0.93440
H          H       0.96620   0.94220   0.81730
H          H       0.01880   0.00850   0.84250
H          H       0.00610   0.10390   0.02210
H          H       0.98040   0.14780   0.01510
H          H       0.99700   0.17250   0.12500
H          H       0.03740   0.27380   0.69930
H          H       0.06480   0.24860   0.74040
H          H       0.10770   0.38970   0.96080
H          H       0.08230   0.43330   0.98190
H          H       0.97420   0.38920   0.86010
H          H       0.01710   0.44110   0.92940
H          H       0.74050   0.16210   0.27090
H          H       0.76450   0.12300   0.23810
H          H       0.76800   0.72800   0.81700
H          H       0.80140   0.79920   0.84260
