data_crystal

_cell_length_a    17.26870
_cell_length_b    17.26870
_cell_length_c    91.47660
_cell_angle_alpha 90.00000
_cell_angle_beta  90.00000
_cell_angle_gamma 90.00000

_symmetry_space_group_name_Hall 'P 1'
_symmetry_space_group_name_H-M  'P 1'

loop_
_symmetry_equiv_pos_as_xyz
 'x,y,z'

loop_
_atom_site_label
_atom_site_type_symbol
_atom_site_fract_x
_atom_site_fract_y
_atom_site_fract_z
Zr         Zr      0.50000   0.75000   0.40170
Zr         Zr      0.39720   0.64720   0.37500
Zr         Zr      0.60280   0.64720   0.37500
Zr         Zr      0.50000   0.25000   0.59830
Zr         Zr      0.60280   0.14720   0.62500
Zr         Zr      0.60280   0.85280   0.37500
Zr         Zr      0.39720   0.85280   0.37500
Zr         Zr      0.39720   0.14720   0.62500
Zr         Zr      0.00000   0.75000   0.09830
Zr         Zr      0.89720   0.85280   0.12500
Zr         Zr      0.89720   0.14720   0.87500
Zr         Zr      0.60280   0.35280   0.62500
Zr         Zr      0.00000   0.25000   0.84830
Zr         Zr      0.50000   0.25000   0.65170
Zr         Zr      0.39720   0.35280   0.62500
Zr         Zr      0.50000   0.75000   0.34830
Zr         Zr      0.00000   0.75000   0.15170
Zr         Zr      0.10280   0.85280   0.12500
Zr         Zr      0.00000   0.25000   0.90170
Zr         Zr      0.10280   0.14720   0.87500
Zr         Zr      0.10280   0.64720   0.12500
Zr         Zr      0.10280   0.35280   0.87500
Zr         Zr      0.89720   0.35280   0.87500
Zr         Zr      0.89720   0.64720   0.12500
H          H       0.71920   0.93740   0.41980
H          H       0.62490   0.85410   0.43800
H          H       0.74430   0.00000   0.50000
H          H       0.77570   0.99560   0.43940
H          H       0.93590   0.93530   0.46660
H          H       0.72000   0.88280   0.48370
H          H       0.65210   0.84750   0.46330
H          H       0.71920   0.06260   0.58020
H          H       0.62490   0.14590   0.56200
H          H       0.77570   0.00440   0.56060
H          H       0.93590   0.06470   0.53340
H          H       0.72000   0.11720   0.51630
H          H       0.65210   0.15250   0.53670
H          H       0.28080   0.06260   0.58020
H          H       0.37510   0.14590   0.56200
H          H       0.25570   0.00000   0.50000
H          H       0.22430   0.00440   0.56060
H          H       0.06410   0.06470   0.53340
H          H       0.28000   0.11720   0.51630
H          H       0.34790   0.15250   0.53670
H          H       0.28080   0.93740   0.41980
H          H       0.37510   0.85410   0.43800
H          H       0.22430   0.99560   0.43940
H          H       0.06410   0.93530   0.46660
H          H       0.28000   0.88280   0.48370
H          H       0.34790   0.84750   0.46330
H          H       0.43590   0.93530   0.03340
H          H       0.31260   0.46920   0.66980
H          H       0.78080   0.93740   0.08020
H          H       0.87510   0.85410   0.06200
H          H       0.72430   0.99560   0.06060
H          H       0.56410   0.93530   0.03340
H          H       0.78000   0.88280   0.01630
H          H       0.84790   0.84750   0.03670
H          H       0.78080   0.06260   0.91980
H          H       0.87510   0.14590   0.93800
H          H       0.72430   0.00440   0.93940
H          H       0.56410   0.06470   0.96660
H          H       0.78000   0.11720   0.98370
H          H       0.84790   0.15250   0.96330
H          H       0.21920   0.06260   0.91980
H          H       0.12490   0.14590   0.93800
H          H       0.27570   0.00440   0.93940
H          H       0.43590   0.06470   0.96660
H          H       0.22000   0.11720   0.98370
H          H       0.15210   0.15250   0.96330
H          H       0.21920   0.93740   0.08020
H          H       0.12490   0.85410   0.06200
H          H       0.27570   0.99560   0.06060
H          H       0.22000   0.88280   0.01630
H          H       0.15210   0.84750   0.03670
H          H       0.18740   0.46920   0.83020
H          H       0.10410   0.37490   0.81200
H          H       0.25000   0.49430   0.75000
H          H       0.24560   0.52570   0.81060
H          H       0.18530   0.68590   0.78340
H          H       0.13280   0.47000   0.76630
H          H       0.28410   0.59060   0.78990
H          H       0.09750   0.40210   0.78670
H          H       0.39590   0.37490   0.68800
H          H       0.25440   0.52570   0.68940
H          H       0.31470   0.68590   0.71660
H          H       0.36720   0.47000   0.73370
H          H       0.21590   0.59060   0.71010
H          H       0.40250   0.40210   0.71330
H          H       0.31260   0.03080   0.66980
H          H       0.39590   0.12510   0.68800
H          H       0.25440   0.97430   0.68940
H          H       0.31470   0.81410   0.71660
H          H       0.36720   0.03000   0.73370
H          H       0.21590   0.90940   0.71010
H          H       0.40250   0.09790   0.71330
H          H       0.18740   0.03080   0.83020
H          H       0.10410   0.12510   0.81200
H          H       0.24560   0.97430   0.81060
H          H       0.18530   0.81410   0.78340
H          H       0.13280   0.03000   0.76630
H          H       0.28410   0.90940   0.78990
H          H       0.09750   0.09790   0.78670
H          H       0.31260   0.53080   0.33020
H          H       0.39590   0.62510   0.31200
H          H       0.25000   0.50570   0.25000
H          H       0.25440   0.47430   0.31060
H          H       0.31470   0.31410   0.28340
H          H       0.36720   0.53000   0.26630
H          H       0.21590   0.40940   0.28990
H          H       0.40250   0.59790   0.28670
H          H       0.18740   0.53080   0.16980
H          H       0.10410   0.62510   0.18800
H          H       0.24560   0.47430   0.18940
H          H       0.18530   0.31410   0.21660
H          H       0.13280   0.53000   0.23370
H          H       0.28410   0.40940   0.21010
H          H       0.09750   0.59790   0.21330
H          H       0.18740   0.96920   0.16980
H          H       0.10410   0.87490   0.18800
H          H       0.24560   0.02570   0.18940
H          H       0.18530   0.18590   0.21660
H          H       0.13280   0.97000   0.23370
H          H       0.28410   0.09060   0.21010
H          H       0.09750   0.90210   0.21330
H          H       0.31260   0.96920   0.33020
H          H       0.39590   0.87490   0.31200
H          H       0.25440   0.02570   0.31060
H          H       0.31470   0.18590   0.28340
H          H       0.36720   0.97000   0.26630
H          H       0.21590   0.09060   0.28990
H          H       0.40250   0.90210   0.28670
H          H       0.21920   0.43740   0.91980
H          H       0.12490   0.35410   0.93800
H          H       0.24430   0.50000   0.00000
H          H       0.27570   0.49560   0.93940
H          H       0.43590   0.43530   0.96660
H          H       0.22000   0.38280   0.98370
H          H       0.34060   0.53410   0.96010
H          H       0.15210   0.34750   0.96330
H          H       0.21920   0.56260   0.08020
H          H       0.12490   0.64590   0.06200
H          H       0.27570   0.50440   0.06060
H          H       0.43590   0.56470   0.03340
H          H       0.22000   0.61720   0.01630
H          H       0.34060   0.46590   0.03990
H          H       0.15210   0.65250   0.03670
H          H       0.78080   0.56260   0.08020
H          H       0.87510   0.64590   0.06200
H          H       0.75570   0.50000   0.00000
H          H       0.72430   0.50440   0.06060
H          H       0.56410   0.56470   0.03340
H          H       0.78000   0.61720   0.01630
H          H       0.65940   0.46590   0.03990
H          H       0.84790   0.65250   0.03670
H          H       0.78080   0.43740   0.91980
H          H       0.87510   0.35410   0.93800
H          H       0.72430   0.49560   0.93940
H          H       0.56410   0.43530   0.96660
H          H       0.78000   0.38280   0.98370
H          H       0.65940   0.53410   0.96010
H          H       0.84790   0.34750   0.96330
H          H       0.28080   0.56260   0.41980
H          H       0.37510   0.64590   0.43800
H          H       0.25570   0.50000   0.50000
H          H       0.22430   0.50440   0.43940
H          H       0.06410   0.56470   0.46660
H          H       0.28000   0.61720   0.48370
H          H       0.15940   0.46590   0.46010
H          H       0.34790   0.65250   0.46330
H          H       0.28080   0.43740   0.58020
H          H       0.37510   0.35410   0.56200
H          H       0.22430   0.49560   0.56060
H          H       0.06410   0.43530   0.53340
H          H       0.28000   0.38280   0.51630
H          H       0.15940   0.53410   0.53990
H          H       0.34790   0.34750   0.53670
H          H       0.71920   0.43740   0.58020
H          H       0.62490   0.35410   0.56200
H          H       0.74430   0.50000   0.50000
H          H       0.77570   0.49560   0.56060
H          H       0.93590   0.43530   0.53340
H          H       0.72000   0.38280   0.51630
H          H       0.84060   0.53410   0.53990
H          H       0.65210   0.34750   0.53670
H          H       0.71920   0.56260   0.41980
H          H       0.62490   0.64590   0.43800
H          H       0.77570   0.50440   0.43940
H          H       0.93590   0.56470   0.46660
H          H       0.72000   0.61720   0.48370
H          H       0.84060   0.46590   0.46010
H          H       0.65210   0.65250   0.46330
H          H       0.81260   0.96920   0.16980
H          H       0.89590   0.87490   0.18800
H          H       0.75440   0.02570   0.18940
H          H       0.81470   0.18590   0.21660
H          H       0.86720   0.97000   0.23370
H          H       0.71590   0.09060   0.21010
H          H       0.90250   0.90210   0.21330
H          H       0.68740   0.96920   0.33020
H          H       0.60410   0.87490   0.31200
H          H       0.74560   0.02570   0.31060
H          H       0.68530   0.18590   0.28340
H          H       0.63280   0.97000   0.26630
H          H       0.78410   0.09060   0.28990
H          H       0.59750   0.90210   0.28670
H          H       0.68740   0.53080   0.33020
H          H       0.60410   0.62510   0.31200
H          H       0.75000   0.50570   0.25000
H          H       0.74560   0.47430   0.31060
H          H       0.68530   0.31410   0.28340
H          H       0.63280   0.53000   0.26630
H          H       0.78410   0.40940   0.28990
H          H       0.59750   0.59790   0.28670
H          H       0.81260   0.53080   0.16980
H          H       0.89590   0.62510   0.18800
H          H       0.75440   0.47430   0.18940
H          H       0.81470   0.31410   0.21660
H          H       0.86720   0.53000   0.23370
H          H       0.71590   0.40940   0.21010
H          H       0.90250   0.59790   0.21330
H          H       0.68740   0.03080   0.66980
H          H       0.60410   0.12510   0.68800
H          H       0.74560   0.97430   0.68940
H          H       0.68530   0.81410   0.71660
H          H       0.63280   0.03000   0.73370
H          H       0.78410   0.90940   0.71010
H          H       0.59750   0.09790   0.71330
H          H       0.81260   0.03080   0.83020
H          H       0.89590   0.12510   0.81200
H          H       0.75440   0.97430   0.81060
H          H       0.81470   0.81410   0.78340
H          H       0.86720   0.03000   0.76630
H          H       0.71590   0.90940   0.78990
H          H       0.90250   0.09790   0.78670
H          H       0.81260   0.46920   0.83020
H          H       0.89590   0.37490   0.81200
H          H       0.75000   0.49430   0.75000
H          H       0.75440   0.52570   0.81060
H          H       0.81470   0.68590   0.78340
H          H       0.86720   0.47000   0.76630
H          H       0.71590   0.59060   0.78990
H          H       0.90250   0.40210   0.78670
H          H       0.68740   0.46920   0.66980
H          H       0.60410   0.37490   0.68800
H          H       0.74560   0.52570   0.68940
H          H       0.68530   0.68590   0.71660
H          H       0.63280   0.47000   0.73370
H          H       0.78410   0.59060   0.71010
H          H       0.59750   0.40210   0.71330
H          H       0.37740   0.50480   0.38590
H          H       0.36850   0.49900   0.36830
H          H       0.43220   0.00550   0.61520
H          H       0.42150   0.99970   0.63270
H          H       0.75110   0.62950   0.38280
H          H       0.74580   0.61670   0.36530
H          H       0.74930   0.18840   0.61940
H          H       0.74430   0.16380   0.63650
H          H       0.54610   0.49700   0.62430
H          H       0.63150   0.50100   0.63170
H          H       0.62260   0.99520   0.38590
H          H       0.63150   0.00100   0.36830
H          H       0.24890   0.87050   0.38280
H          H       0.25420   0.88330   0.36530
H          H       0.25370   0.29640   0.62800
H          H       0.25420   0.38330   0.63470
H          H       0.25040   0.09760   0.62400
H          H       0.37740   0.49520   0.61410
H          H       0.75110   0.37050   0.61720
H          H       0.65390   0.00160   0.62220
H          H       0.54610   0.50300   0.37570
H          H       0.25370   0.70360   0.37200
H          H       0.45390   0.99700   0.37570
H          H       0.74630   0.79640   0.37200
H          H       0.63480   0.25000   0.60730
H          H       0.66690   0.75000   0.35410
H          H       0.33310   0.75000   0.35410
H          H       0.36520   0.25000   0.60730
H          H       0.50000   0.58310   0.39590
H          H       0.50000   0.91690   0.39590
H          H       0.50000   0.38480   0.64270
H          H       0.50000   0.11520   0.64270
H          H       0.12050   0.99890   0.86720
H          H       0.86090   0.00380   0.88370
H          H       0.88690   0.99890   0.86670
H          H       0.75480   0.19680   0.86820
H          H       0.75440   0.37980   0.86480
H          H       0.75350   0.29590   0.87280
H          H       0.95290   0.49600   0.87880
H          H       0.24700   0.20390   0.87430
H          H       0.25100   0.11850   0.88170
H          H       0.25110   0.37440   0.88250
H          H       0.12440   0.50110   0.86750
H          H       0.04590   0.49650   0.87720
H          H       0.95170   0.12180   0.88390
H          H       0.82710   0.25000   0.85620
H          H       0.16690   0.25000   0.85410
H          H       0.00770   0.41370   0.89650
H          H       0.12260   0.50480   0.11410
H          H       0.24630   0.70360   0.12800
H          H       0.24580   0.61670   0.13470
H          H       0.25110   0.87050   0.11720
H          H       0.95290   0.50400   0.12120
H          H       0.88360   0.49890   0.13310
H          H       0.75000   0.67710   0.11780
H          H       0.74890   0.87440   0.11750
H          H       0.75350   0.79590   0.12720
H          H       0.87560   0.00110   0.13250
H          H       0.04610   0.99700   0.12430
H          H       0.13150   0.00100   0.13170
H          H       0.95850   0.67270   0.12910
H          H       0.98830   0.88760   0.14150
H          H       0.13480   0.75000   0.10730
H          H       0.96510   0.75000   0.10970
H          H       0.84060   0.03410   0.46010
H          H       0.84060   0.96590   0.53990
H          H       0.15940   0.96590   0.53990
H          H       0.15940   0.03410   0.46010
H          H       0.75570   0.00000   0.00000
H          H       0.65940   0.03410   0.03990
H          H       0.65940   0.96590   0.96010
H          H       0.24430   0.00000   0.00000
H          H       0.34060   0.96590   0.96010
H          H       0.34060   0.03410   0.03990
H          H       0.25000   0.00570   0.75000
H          H       0.25000   0.99430   0.25000
H          H       0.75000   0.99430   0.25000
H          H       0.75000   0.00570   0.75000
C          C       0.63310   0.86820   0.41030
C          C       0.67960   0.90330   0.42220
C          C       0.66610   0.88740   0.43610
C          C       0.79810   0.00000   0.50000
C          C       0.91680   0.97830   0.48720
C          C       0.83570   0.97950   0.48730
C          C       0.79000   0.95830   0.47400
C          C       0.70740   0.91510   0.44890
C          C       0.76430   0.97220   0.44830
C          C       0.95830   0.00000   0.50000
C          C       0.96170   0.95270   0.47490
C          C       0.73220   0.90520   0.47470
C          C       0.80420   0.99460   0.46060
C          C       0.69150   0.88390   0.46250
C          C       0.63310   0.13180   0.58970
C          C       0.67960   0.09670   0.57780
C          C       0.66610   0.11260   0.56390
C          C       0.91680   0.02170   0.51280
C          C       0.83570   0.02050   0.51270
C          C       0.79000   0.04170   0.52600
C          C       0.70740   0.08490   0.55110
C          C       0.76430   0.02780   0.55170
C          C       0.96170   0.04730   0.52510
C          C       0.73220   0.09480   0.52530
C          C       0.80420   0.00540   0.53940
C          C       0.69150   0.11610   0.53750
C          C       0.36690   0.13180   0.58970
C          C       0.32040   0.09670   0.57780
C          C       0.33390   0.11260   0.56390
C          C       0.20190   0.00000   0.50000
C          C       0.08320   0.02170   0.51280
C          C       0.16430   0.02050   0.51270
C          C       0.21000   0.04170   0.52600
C          C       0.29260   0.08490   0.55110
C          C       0.23570   0.02780   0.55170
C          C       0.04170   0.00000   0.50000
C          C       0.03830   0.04730   0.52510
C          C       0.26780   0.09480   0.52530
C          C       0.19580   0.00540   0.53940
C          C       0.30850   0.11610   0.53750
C          C       0.36690   0.86820   0.41030
C          C       0.32040   0.90330   0.42220
C          C       0.33390   0.88740   0.43610
C          C       0.08320   0.97830   0.48720
C          C       0.16430   0.97950   0.48730
C          C       0.21000   0.95830   0.47400
C          C       0.29260   0.91510   0.44890
C          C       0.23570   0.97220   0.44830
C          C       0.03830   0.95270   0.47490
C          C       0.26780   0.90520   0.47470
C          C       0.19580   0.99460   0.46060
C          C       0.30850   0.88390   0.46250
C          C       0.33570   0.02050   0.98730
C          C       0.29000   0.04170   0.97400
C          C       0.46170   0.04730   0.97490
C          C       0.38180   0.38310   0.66030
C          C       0.34670   0.42960   0.67220
C          C       0.86690   0.86820   0.08970
C          C       0.82040   0.90330   0.07780
C          C       0.83390   0.88740   0.06390
C          C       0.58320   0.97830   0.01280
C          C       0.66430   0.97950   0.01270
C          C       0.71000   0.95830   0.02600
C          C       0.79260   0.91510   0.05110
C          C       0.73570   0.97220   0.05170
C          C       0.53830   0.95270   0.02510
C          C       0.76780   0.90520   0.02530
C          C       0.69580   0.99460   0.03940
C          C       0.80850   0.88390   0.03750
C          C       0.86690   0.13180   0.91030
C          C       0.82040   0.09670   0.92220
C          C       0.83390   0.11260   0.93610
C          C       0.58320   0.02170   0.98720
C          C       0.66430   0.02050   0.98730
C          C       0.71000   0.04170   0.97400
C          C       0.79260   0.08490   0.94890
C          C       0.73570   0.02780   0.94830
C          C       0.53830   0.04730   0.97490
C          C       0.76780   0.09480   0.97470
C          C       0.69580   0.00540   0.96060
C          C       0.80850   0.11610   0.96250
C          C       0.13310   0.13180   0.91030
C          C       0.17960   0.09670   0.92220
C          C       0.16610   0.11260   0.93610
C          C       0.41680   0.02170   0.98720
C          C       0.20740   0.08490   0.94890
C          C       0.26430   0.02780   0.94830
C          C       0.23220   0.09480   0.97470
C          C       0.30420   0.00540   0.96060
C          C       0.19150   0.11610   0.96250
C          C       0.13310   0.86820   0.08970
C          C       0.17960   0.90330   0.07780
C          C       0.16610   0.88740   0.06390
C          C       0.41680   0.97830   0.01280
C          C       0.33570   0.97950   0.01270
C          C       0.29000   0.95830   0.02600
C          C       0.20740   0.91510   0.05110
C          C       0.26430   0.97220   0.05170
C          C       0.46170   0.95270   0.02510
C          C       0.23220   0.90520   0.02530
C          C       0.30420   0.99460   0.03940
C          C       0.19150   0.88390   0.03750
C          C       0.11820   0.38310   0.83970
C          C       0.15330   0.42960   0.82780
C          C       0.13740   0.41610   0.81390
C          C       0.25000   0.54810   0.75000
C          C       0.22830   0.66680   0.76280
C          C       0.22950   0.58570   0.76270
C          C       0.20830   0.54000   0.77600
C          C       0.16510   0.45740   0.80110
C          C       0.22220   0.51430   0.80170
C          C       0.25000   0.70830   0.75000
C          C       0.20270   0.71170   0.77510
C          C       0.15520   0.48220   0.77530
C          C       0.24460   0.55420   0.78940
C          C       0.13390   0.44150   0.78750
C          C       0.36260   0.41610   0.68610
C          C       0.27170   0.66680   0.73720
C          C       0.27050   0.58570   0.73730
C          C       0.29170   0.54000   0.72400
C          C       0.33490   0.45740   0.69890
C          C       0.27780   0.51430   0.69830
C          C       0.29730   0.71170   0.72490
C          C       0.34480   0.48220   0.72470
C          C       0.25540   0.55420   0.71060
C          C       0.36610   0.44150   0.71250
C          C       0.38180   0.11690   0.66030
C          C       0.34670   0.07040   0.67220
C          C       0.36260   0.08390   0.68610
C          C       0.25000   0.95190   0.75000
C          C       0.27170   0.83320   0.73720
C          C       0.27050   0.91430   0.73730
C          C       0.29170   0.96000   0.72400
C          C       0.33490   0.04260   0.69890
C          C       0.27780   0.98570   0.69830
C          C       0.25000   0.79170   0.75000
C          C       0.29730   0.78830   0.72490
C          C       0.34480   0.01780   0.72470
C          C       0.25540   0.94580   0.71060
C          C       0.36610   0.05850   0.71250
C          C       0.11820   0.11690   0.83970
C          C       0.15330   0.07040   0.82780
C          C       0.13740   0.08390   0.81390
C          C       0.22830   0.83320   0.76280
C          C       0.22950   0.91430   0.76270
C          C       0.20830   0.96000   0.77600
C          C       0.16510   0.04260   0.80110
C          C       0.22220   0.98570   0.80170
C          C       0.20270   0.78830   0.77510
C          C       0.15520   0.01780   0.77530
C          C       0.24460   0.94580   0.78940
C          C       0.13390   0.05850   0.78750
C          C       0.38180   0.61690   0.33970
C          C       0.34670   0.57040   0.32780
C          C       0.36260   0.58390   0.31390
C          C       0.25000   0.45190   0.25000
C          C       0.27170   0.33320   0.26280
C          C       0.27050   0.41430   0.26270
C          C       0.29170   0.46000   0.27600
C          C       0.33490   0.54260   0.30110
C          C       0.27780   0.48570   0.30170
C          C       0.25000   0.29170   0.25000
C          C       0.29730   0.28830   0.27510
C          C       0.34480   0.51780   0.27530
C          C       0.25540   0.44580   0.28940
C          C       0.36610   0.55850   0.28750
C          C       0.11820   0.61690   0.16030
C          C       0.15330   0.57040   0.17220
C          C       0.13740   0.58390   0.18610
C          C       0.22830   0.33320   0.23720
C          C       0.22950   0.41430   0.23730
C          C       0.20830   0.46000   0.22400
C          C       0.16510   0.54260   0.19890
C          C       0.22220   0.48570   0.19830
C          C       0.20270   0.28830   0.22490
C          C       0.15520   0.51780   0.22470
C          C       0.24460   0.44580   0.21060
C          C       0.13390   0.55850   0.21250
C          C       0.11820   0.88310   0.16030
C          C       0.15330   0.92960   0.17220
C          C       0.13740   0.91610   0.18610
C          C       0.25000   0.04810   0.25000
C          C       0.22830   0.16680   0.23720
C          C       0.22950   0.08570   0.23730
C          C       0.20830   0.04000   0.22400
C          C       0.16510   0.95740   0.19890
C          C       0.22220   0.01430   0.19830
C          C       0.25000   0.20830   0.25000
C          C       0.20270   0.21170   0.22490
C          C       0.15520   0.98220   0.22470
C          C       0.24460   0.05420   0.21060
C          C       0.13390   0.94150   0.21250
C          C       0.38180   0.88310   0.33970
C          C       0.34670   0.92960   0.32780
C          C       0.36260   0.91610   0.31390
C          C       0.27170   0.16680   0.26280
C          C       0.27050   0.08570   0.26270
C          C       0.29170   0.04000   0.27600
C          C       0.33490   0.95740   0.30110
C          C       0.27780   0.01430   0.30170
C          C       0.29730   0.21170   0.27510
C          C       0.34480   0.98220   0.27530
C          C       0.25540   0.05420   0.28940
C          C       0.36610   0.94150   0.28750
C          C       0.13310   0.36820   0.91030
C          C       0.17960   0.40330   0.92220
C          C       0.16610   0.38740   0.93610
C          C       0.29810   0.50000   0.00000
C          C       0.41680   0.47830   0.98720
C          C       0.33570   0.47950   0.98730
C          C       0.29000   0.45830   0.97400
C          C       0.20740   0.41510   0.94890
C          C       0.26430   0.47220   0.94830
C          C       0.45830   0.50000   0.00000
C          C       0.46170   0.45270   0.97490
C          C       0.23220   0.40520   0.97470
C          C       0.30420   0.49460   0.96060
C          C       0.19150   0.38390   0.96250
C          C       0.13310   0.63180   0.08970
C          C       0.17960   0.59670   0.07780
C          C       0.16610   0.61260   0.06390
C          C       0.41680   0.52170   0.01280
C          C       0.33570   0.52050   0.01270
C          C       0.29000   0.54170   0.02600
C          C       0.20740   0.58490   0.05110
C          C       0.26430   0.52780   0.05170
C          C       0.46170   0.54730   0.02510
C          C       0.23220   0.59480   0.02530
C          C       0.30420   0.50540   0.03940
C          C       0.19150   0.61610   0.03750
C          C       0.86690   0.63180   0.08970
C          C       0.82040   0.59670   0.07780
C          C       0.83390   0.61260   0.06390
C          C       0.70190   0.50000   0.00000
C          C       0.58320   0.52170   0.01280
C          C       0.66430   0.52050   0.01270
C          C       0.71000   0.54170   0.02600
C          C       0.79260   0.58490   0.05110
C          C       0.73570   0.52780   0.05170
C          C       0.54170   0.50000   0.00000
C          C       0.53830   0.54730   0.02510
C          C       0.76780   0.59480   0.02530
C          C       0.69580   0.50540   0.03940
C          C       0.80850   0.61610   0.03750
C          C       0.86690   0.36820   0.91030
C          C       0.82040   0.40330   0.92220
C          C       0.83390   0.38740   0.93610
C          C       0.58320   0.47830   0.98720
C          C       0.66430   0.47950   0.98730
C          C       0.71000   0.45830   0.97400
C          C       0.79260   0.41510   0.94890
C          C       0.73570   0.47220   0.94830
C          C       0.53830   0.45270   0.97490
C          C       0.76780   0.40520   0.97470
C          C       0.69580   0.49460   0.96060
C          C       0.80850   0.38390   0.96250
C          C       0.36690   0.63180   0.41030
C          C       0.32040   0.59670   0.42220
C          C       0.33390   0.61260   0.43610
C          C       0.20190   0.50000   0.50000
C          C       0.08320   0.52170   0.48720
C          C       0.16430   0.52050   0.48730
C          C       0.21000   0.54170   0.47400
C          C       0.29260   0.58490   0.44890
C          C       0.23570   0.52780   0.44830
C          C       0.04170   0.50000   0.50000
C          C       0.03830   0.54730   0.47490
C          C       0.26780   0.59480   0.47470
C          C       0.19580   0.50540   0.46060
C          C       0.30850   0.61610   0.46250
C          C       0.36690   0.36820   0.58970
C          C       0.32040   0.40330   0.57780
C          C       0.33390   0.38740   0.56390
C          C       0.08320   0.47830   0.51280
C          C       0.16430   0.47950   0.51270
C          C       0.21000   0.45830   0.52600
C          C       0.29260   0.41510   0.55110
C          C       0.23570   0.47220   0.55170
C          C       0.03830   0.45270   0.52510
C          C       0.26780   0.40520   0.52530
C          C       0.19580   0.49460   0.53940
C          C       0.30850   0.38390   0.53750
C          C       0.63310   0.36820   0.58970
C          C       0.67960   0.40330   0.57780
C          C       0.66610   0.38740   0.56390
C          C       0.79810   0.50000   0.50000
C          C       0.91680   0.47830   0.51280
C          C       0.83570   0.47950   0.51270
C          C       0.79000   0.45830   0.52600
C          C       0.70740   0.41510   0.55110
C          C       0.76430   0.47220   0.55170
C          C       0.95830   0.50000   0.50000
C          C       0.96170   0.45270   0.52510
C          C       0.73220   0.40520   0.52530
C          C       0.80420   0.49460   0.53940
C          C       0.69150   0.38390   0.53750
C          C       0.63310   0.63180   0.41030
C          C       0.67960   0.59670   0.42220
C          C       0.66610   0.61260   0.43610
C          C       0.91680   0.52170   0.48720
C          C       0.83570   0.52050   0.48730
C          C       0.79000   0.54170   0.47400
C          C       0.70740   0.58490   0.44890
C          C       0.76430   0.52780   0.44830
C          C       0.96170   0.54730   0.47490
C          C       0.73220   0.59480   0.47470
C          C       0.80420   0.50540   0.46060
C          C       0.69150   0.61610   0.46250
C          C       0.88180   0.88310   0.16030
C          C       0.84670   0.92960   0.17220
C          C       0.86260   0.91610   0.18610
C          C       0.75000   0.04810   0.25000
C          C       0.77170   0.16680   0.23720
C          C       0.77050   0.08570   0.23730
C          C       0.79170   0.04000   0.22400
C          C       0.83490   0.95740   0.19890
C          C       0.77780   0.01430   0.19830
C          C       0.75000   0.20830   0.25000
C          C       0.79730   0.21170   0.22490
C          C       0.84480   0.98220   0.22470
C          C       0.75540   0.05420   0.21060
C          C       0.86610   0.94150   0.21250
C          C       0.61820   0.88310   0.33970
C          C       0.65330   0.92960   0.32780
C          C       0.63740   0.91610   0.31390
C          C       0.72830   0.16680   0.26280
C          C       0.72950   0.08570   0.26270
C          C       0.70830   0.04000   0.27600
C          C       0.66510   0.95740   0.30110
C          C       0.72220   0.01430   0.30170
C          C       0.70270   0.21170   0.27510
C          C       0.65520   0.98220   0.27530
C          C       0.74460   0.05420   0.28940
C          C       0.63390   0.94150   0.28750
C          C       0.61820   0.61690   0.33970
C          C       0.65330   0.57040   0.32780
C          C       0.63740   0.58390   0.31390
C          C       0.75000   0.45190   0.25000
C          C       0.72830   0.33320   0.26280
C          C       0.72950   0.41430   0.26270
C          C       0.70830   0.46000   0.27600
C          C       0.66510   0.54260   0.30110
C          C       0.72220   0.48570   0.30170
C          C       0.75000   0.29170   0.25000
C          C       0.70270   0.28830   0.27510
C          C       0.65520   0.51780   0.27530
C          C       0.74460   0.44580   0.28940
C          C       0.63390   0.55850   0.28750
C          C       0.88180   0.61690   0.16030
C          C       0.84670   0.57040   0.17220
C          C       0.86260   0.58390   0.18610
C          C       0.77170   0.33320   0.23720
C          C       0.77050   0.41430   0.23730
C          C       0.79170   0.46000   0.22400
C          C       0.83490   0.54260   0.19890
C          C       0.77780   0.48570   0.19830
C          C       0.79730   0.28830   0.22490
C          C       0.84480   0.51780   0.22470
C          C       0.75540   0.44580   0.21060
C          C       0.86610   0.55850   0.21250
C          C       0.61820   0.11690   0.66030
C          C       0.65330   0.07040   0.67220
C          C       0.63740   0.08390   0.68610
C          C       0.75000   0.95190   0.75000
C          C       0.72830   0.83320   0.73720
C          C       0.72950   0.91430   0.73730
C          C       0.70830   0.96000   0.72400
C          C       0.66510   0.04260   0.69890
C          C       0.72220   0.98570   0.69830
C          C       0.75000   0.79170   0.75000
C          C       0.70270   0.78830   0.72490
C          C       0.65520   0.01780   0.72470
C          C       0.74460   0.94580   0.71060
C          C       0.63390   0.05850   0.71250
C          C       0.88180   0.11690   0.83970
C          C       0.84670   0.07040   0.82780
C          C       0.86260   0.08390   0.81390
C          C       0.77170   0.83320   0.76280
C          C       0.77050   0.91430   0.76270
C          C       0.79170   0.96000   0.77600
C          C       0.83490   0.04260   0.80110
C          C       0.77780   0.98570   0.80170
C          C       0.79730   0.78830   0.77510
C          C       0.84480   0.01780   0.77530
C          C       0.75540   0.94580   0.78940
C          C       0.86610   0.05850   0.78750
C          C       0.88180   0.38310   0.83970
C          C       0.84670   0.42960   0.82780
C          C       0.86260   0.41610   0.81390
C          C       0.75000   0.54810   0.75000
C          C       0.77170   0.66680   0.76280
C          C       0.77050   0.58570   0.76270
C          C       0.79170   0.54000   0.77600
C          C       0.83490   0.45740   0.80110
C          C       0.77780   0.51430   0.80170
C          C       0.75000   0.70830   0.75000
C          C       0.79730   0.71170   0.77510
C          C       0.84480   0.48220   0.77530
C          C       0.75540   0.55420   0.78940
C          C       0.86610   0.44150   0.78750
C          C       0.61820   0.38310   0.66030
C          C       0.65330   0.42960   0.67220
C          C       0.63740   0.41610   0.68610
C          C       0.72830   0.66680   0.73720
C          C       0.72950   0.58570   0.73730
C          C       0.70830   0.54000   0.72400
C          C       0.66510   0.45740   0.69890
C          C       0.72220   0.51430   0.69830
C          C       0.70270   0.71170   0.72490
C          C       0.65520   0.48220   0.72470
C          C       0.74460   0.55420   0.71060
C          C       0.63390   0.44150   0.71250
C          C       0.45830   0.00000   0.00000
C          C       0.54170   0.00000   0.00000
C          C       0.70190   0.00000   0.00000
C          C       0.29810   0.00000   0.00000
O          O       0.41170   0.75000   0.38630
O          O       0.50000   0.63010   0.38960
O          O       0.57770   0.82550   0.41410
O          O       0.65250   0.88400   0.39730
O          O       0.27140   0.64960   0.37360
O          O       0.57770   0.17450   0.58590
O          O       0.65250   0.11600   0.60270
O          O       0.42230   0.17450   0.58590
O          O       0.34750   0.11600   0.60270
O          O       0.34750   0.88400   0.39730
O          O       0.58830   0.75000   0.38630
O          O       0.72860   0.64960   0.37360
O          O       0.50000   0.86990   0.38960
O          O       0.39960   0.52140   0.37640
O          O       0.60040   0.52140   0.37640
O          O       0.50000   0.66170   0.36370
O          O       0.61990   0.75000   0.36040
O          O       0.38010   0.75000   0.36040
O          O       0.42230   0.67450   0.41410
O          O       0.42230   0.82550   0.41410
O          O       0.57770   0.67450   0.41410
O          O       0.36600   0.59750   0.35270
O          O       0.34750   0.61600   0.39730
O          O       0.63400   0.59750   0.35270
O          O       0.65250   0.61600   0.39730
O          O       0.22860   0.35040   0.87360
O          O       0.10040   0.47860   0.87640
O          O       0.89960   0.47860   0.87640
O          O       0.13400   0.40250   0.85270
O          O       0.15250   0.38400   0.89730
O          O       0.50000   0.16170   0.63630
O          O       0.36600   0.40250   0.64730
O          O       0.60040   0.02140   0.62360
O          O       0.72860   0.14960   0.62640
O          O       0.57550   0.17230   0.66410
O          O       0.57550   0.32770   0.66410
O          O       0.63400   0.09750   0.64730
O          O       0.00000   0.83830   0.13630
O          O       0.89960   0.97860   0.12360
O          O       0.77140   0.85040   0.12640
O          O       0.92450   0.82770   0.16410
O          O       0.92450   0.67230   0.16410
O          O       0.86600   0.90250   0.14730
O          O       0.08830   0.75000   0.11370
O          O       0.00000   0.63010   0.11040
O          O       0.92230   0.82550   0.08590
O          O       0.84750   0.88400   0.10270
O          O       0.22860   0.64960   0.12640
O          O       0.15250   0.88400   0.10270
O          O       0.91170   0.75000   0.11370
O          O       0.77140   0.64960   0.12640
O          O       0.00000   0.86990   0.11040
O          O       0.10040   0.52140   0.12360
O          O       0.89960   0.52140   0.12360
O          O       0.00000   0.66170   0.13630
O          O       0.88010   0.75000   0.13960
O          O       0.11990   0.75000   0.13960
O          O       0.07770   0.82550   0.08590
O          O       0.86600   0.59750   0.14730
O          O       0.41170   0.25000   0.61370
O          O       0.50000   0.36990   0.61040
O          O       0.27140   0.35040   0.62640
O          O       0.58830   0.25000   0.61370
O          O       0.72860   0.35040   0.62640
O          O       0.50000   0.13010   0.61040
O          O       0.39960   0.47860   0.62360
O          O       0.60040   0.47860   0.62360
O          O       0.50000   0.33830   0.63630
O          O       0.61990   0.25000   0.63960
O          O       0.38010   0.25000   0.63960
O          O       0.63400   0.40250   0.64730
O          O       0.07550   0.32770   0.83590
O          O       0.42450   0.32770   0.66410
O          O       0.42450   0.17230   0.66410
O          O       0.36600   0.09750   0.64730
O          O       0.00000   0.33830   0.86370
O          O       0.77140   0.35040   0.87360
O          O       0.92450   0.17230   0.83590
O          O       0.07550   0.17230   0.83590
O          O       0.92450   0.32770   0.83590
O          O       0.86600   0.40250   0.85270
O          O       0.50000   0.83830   0.36370
O          O       0.42450   0.67230   0.33590
O          O       0.60040   0.97860   0.37640
O          O       0.07550   0.67230   0.16410
O          O       0.13400   0.59750   0.14730
O          O       0.07550   0.82770   0.16410
O          O       0.13400   0.90250   0.14730
O          O       0.36600   0.90250   0.35270
O          O       0.57550   0.82770   0.33590
O          O       0.42450   0.82770   0.33590
O          O       0.57550   0.67230   0.33590
O          O       0.63400   0.90250   0.35270
O          O       0.91170   0.25000   0.88630
O          O       0.00000   0.13010   0.88960
O          O       0.07770   0.32550   0.91410
O          O       0.77140   0.14960   0.87360
O          O       0.07770   0.67450   0.08590
O          O       0.15250   0.61600   0.10270
O          O       0.92230   0.67450   0.08590
O          O       0.84750   0.61600   0.10270
O          O       0.84750   0.38400   0.89730
O          O       0.08830   0.25000   0.88630
O          O       0.22860   0.14960   0.87360
O          O       0.00000   0.36990   0.88960
O          O       0.89960   0.02140   0.87640
O          O       0.10040   0.02140   0.87640
O          O       0.00000   0.16170   0.86370
O          O       0.11990   0.25000   0.86040
O          O       0.88010   0.25000   0.86040
O          O       0.92230   0.17450   0.91410
O          O       0.92230   0.32550   0.91410
O          O       0.07770   0.17450   0.91410
O          O       0.86600   0.09750   0.85270
O          O       0.84750   0.11600   0.89730
O          O       0.13400   0.09750   0.85270
O          O       0.15250   0.11600   0.89730
O          O       0.72860   0.85040   0.37360
O          O       0.42230   0.32550   0.58590
O          O       0.34750   0.38400   0.60270
O          O       0.57770   0.32550   0.58590
O          O       0.65250   0.38400   0.60270
O          O       0.27140   0.85040   0.37360
O          O       0.39960   0.97860   0.37640
O          O       0.10040   0.97860   0.12360
O          O       0.22860   0.85040   0.12640
O          O       0.39960   0.02140   0.62360
O          O       0.27140   0.14960   0.62640
