data_block_1
_audit_creation_date         'Wed Sep  9 15:19:06 2020'
_audit_creation_method       'generated by GDIS v0.91'


_cell_length_a             17.2687
_cell_length_b             17.2687
_cell_length_c             91.4766
_cell_angle_alpha          90.00
_cell_angle_beta           90.00
_cell_angle_gamma          90.00


_symmetry_space_group_name_H-M   'P 1'
_symmetry_Int_Tables_number       1


loop_
_atom_site_label
_atom_site_fract_x
_atom_site_fract_y
_atom_site_fract_z
Zr    0.5000    0.7500    0.4017
Zr    0.3972    0.6472    0.3750
 O    0.4117    0.7500    0.3863
 O    0.5000    0.6301    0.3896
 O    0.5777    0.8255    0.4141
 O    0.6525    0.8840    0.3973
 O    0.2714    0.6496    0.3736
 C    0.6331    0.8682    0.4103
 C    0.6796    0.9033    0.4222
 H    0.7192    0.9374    0.4198
 C    0.6661    0.8874    0.4361
 H    0.6249    0.8541    0.4380
 C    0.7981    0.0000    0.5000
 H    0.7443    0.0000    0.5000
 C    0.9168    0.9783    0.4872
 C    0.8357    0.9795    0.4873
 C    0.7900    0.9583    0.4740
 C    0.7074    0.9151    0.4489
 C    0.7643    0.9722    0.4483
 H    0.7757    0.9956    0.4394
 C    0.9583    0.0000    0.5000
 C    0.9617    0.9527    0.4749
 H    0.9359    0.9353    0.4666
 C    0.7322    0.9052    0.4747
 H    0.7200    0.8828    0.4837
 C    0.8042    0.9946    0.4606
 C    0.6915    0.8839    0.4625
 H    0.6521    0.8475    0.4633
 O    0.5777    0.1745    0.5859
 O    0.6525    0.1160    0.6027
 C    0.6331    0.1318    0.5897
 C    0.6796    0.0967    0.5778
 H    0.7192    0.0626    0.5802
 C    0.6661    0.1126    0.5639
 H    0.6249    0.1459    0.5620
 C    0.9168    0.0217    0.5128
 C    0.8357    0.0205    0.5127
 C    0.7900    0.0417    0.5260
 C    0.7074    0.0849    0.5511
 C    0.7643    0.0278    0.5517
 H    0.7757    0.0044    0.5606
 C    0.9617    0.0473    0.5251
 H    0.9359    0.0647    0.5334
 C    0.7322    0.0948    0.5253
 H    0.7200    0.1172    0.5163
 C    0.8042    0.0054    0.5394
 C    0.6915    0.1161    0.5375
 H    0.6521    0.1525    0.5367
 O    0.4223    0.1745    0.5859
 O    0.3475    0.1160    0.6027
 C    0.3669    0.1318    0.5897
 C    0.3204    0.0967    0.5778
 H    0.2808    0.0626    0.5802
 C    0.3339    0.1126    0.5639
 H    0.3751    0.1459    0.5620
 C    0.2019    0.0000    0.5000
 H    0.2557    0.0000    0.5000
 C    0.0832    0.0217    0.5128
 C    0.1643    0.0205    0.5127
 C    0.2100    0.0417    0.5260
 C    0.2926    0.0849    0.5511
 C    0.2357    0.0278    0.5517
 H    0.2243    0.0044    0.5606
 C    0.0417    0.0000    0.5000
 C    0.0383    0.0473    0.5251
 H    0.0641    0.0647    0.5334
 C    0.2678    0.0948    0.5253
 H    0.2800    0.1172    0.5163
 C    0.1958    0.0054    0.5394
 C    0.3085    0.1161    0.5375
 H    0.3479    0.1525    0.5367
 O    0.3475    0.8840    0.3973
 C    0.3669    0.8682    0.4103
 C    0.3204    0.9033    0.4222
 H    0.2808    0.9374    0.4198
 C    0.3339    0.8874    0.4361
 H    0.3751    0.8541    0.4380
 C    0.0832    0.9783    0.4872
 C    0.1643    0.9795    0.4873
 C    0.2100    0.9583    0.4740
 C    0.2926    0.9151    0.4489
 C    0.2357    0.9722    0.4483
 H    0.2243    0.9956    0.4394
 C    0.0383    0.9527    0.4749
 H    0.0641    0.9353    0.4666
 C    0.2678    0.9052    0.4747
 H    0.2800    0.8828    0.4837
 C    0.1958    0.9946    0.4606
 C    0.3085    0.8839    0.4625
 H    0.3479    0.8475    0.4633
Zr    0.6028    0.6472    0.3750
 O    0.5883    0.7500    0.3863
 O    0.7286    0.6496    0.3736
 O    0.5000    0.8699    0.3896
 O    0.3996    0.5214    0.3764
 O    0.6004    0.5214    0.3764
Zr    0.5000    0.2500    0.5983
Zr    0.6028    0.1472    0.6250
Zr    0.6028    0.8528    0.3750
Zr    0.3972    0.8528    0.3750
Zr    0.3972    0.1472    0.6250
 O    0.5000    0.6617    0.3637
 O    0.6199    0.7500    0.3604
 O    0.3801    0.7500    0.3604
 O    0.4223    0.6745    0.4141
 O    0.4223    0.8255    0.4141
 O    0.5777    0.6745    0.4141
 O    0.3660    0.5975    0.3527
 O    0.3475    0.6160    0.3973
 O    0.6340    0.5975    0.3527
 O    0.6525    0.6160    0.3973
 O    0.2286    0.3504    0.8736
 H    0.4359    0.9353    0.0334
 C    0.3357    0.0205    0.9873
 C    0.2900    0.0417    0.9740
 C    0.4617    0.0473    0.9749
 O    0.1004    0.4786    0.8764
 O    0.8996    0.4786    0.8764
Zr    0.0000    0.7500    0.0983
Zr    0.8972    0.8528    0.1250
Zr    0.8972    0.1472    0.8750
 O    0.1340    0.4025    0.8527
 O    0.1525    0.3840    0.8973
 O    0.5000    0.1617    0.6363
 O    0.3660    0.4025    0.6473
 O    0.6004    0.0214    0.6236
 C    0.3818    0.3831    0.6603
 C    0.3467    0.4296    0.6722
 H    0.3126    0.4692    0.6698
 O    0.7286    0.1496    0.6264
 O    0.5755    0.1723    0.6641
 O    0.5755    0.3277    0.6641
 O    0.6340    0.0975    0.6473
 O    0.0000    0.8383    0.1363
 O    0.8996    0.9786    0.1236
 O    0.7714    0.8504    0.1264
 O    0.9245    0.8277    0.1641
 O    0.9245    0.6723    0.1641
 O    0.8660    0.9025    0.1473
 O    0.0883    0.7500    0.1137
 O    0.0000    0.6301    0.1104
 O    0.9223    0.8255    0.0859
 O    0.8475    0.8840    0.1027
 O    0.2286    0.6496    0.1264
 C    0.8669    0.8682    0.0897
 C    0.8204    0.9033    0.0778
 H    0.7808    0.9374    0.0802
 C    0.8339    0.8874    0.0639
 H    0.8751    0.8541    0.0620
 C    0.5832    0.9783    0.0128
 C    0.6643    0.9795    0.0127
 C    0.7100    0.9583    0.0260
 C    0.7926    0.9151    0.0511
 C    0.7357    0.9722    0.0517
 H    0.7243    0.9956    0.0606
 C    0.5383    0.9527    0.0251
 H    0.5641    0.9353    0.0334
 C    0.7678    0.9052    0.0253
 H    0.7800    0.8828    0.0163
 C    0.6958    0.9946    0.0394
 C    0.8085    0.8839    0.0375
 H    0.8479    0.8475    0.0367
 C    0.8669    0.1318    0.9103
 C    0.8204    0.0967    0.9222
 H    0.7808    0.0626    0.9198
 C    0.8339    0.1126    0.9361
 H    0.8751    0.1459    0.9380
 C    0.5832    0.0217    0.9872
 C    0.6643    0.0205    0.9873
 C    0.7100    0.0417    0.9740
 C    0.7926    0.0849    0.9489
 C    0.7357    0.0278    0.9483
 H    0.7243    0.0044    0.9394
 C    0.5383    0.0473    0.9749
 H    0.5641    0.0647    0.9666
 C    0.7678    0.0948    0.9747
 H    0.7800    0.1172    0.9837
 C    0.6958    0.0054    0.9606
 C    0.8085    0.1161    0.9625
 H    0.8479    0.1525    0.9633
 C    0.1331    0.1318    0.9103
 C    0.1796    0.0967    0.9222
 H    0.2192    0.0626    0.9198
 C    0.1661    0.1126    0.9361
 H    0.1249    0.1459    0.9380
 C    0.4168    0.0217    0.9872
 C    0.2074    0.0849    0.9489
 C    0.2643    0.0278    0.9483
 H    0.2757    0.0044    0.9394
 H    0.4359    0.0647    0.9666
 C    0.2322    0.0948    0.9747
 H    0.2200    0.1172    0.9837
 C    0.3042    0.0054    0.9606
 C    0.1915    0.1161    0.9625
 H    0.1521    0.1525    0.9633
 O    0.1525    0.8840    0.1027
 C    0.1331    0.8682    0.0897
 C    0.1796    0.9033    0.0778
 H    0.2192    0.9374    0.0802
 C    0.1661    0.8874    0.0639
 H    0.1249    0.8541    0.0620
 C    0.4168    0.9783    0.0128
 C    0.3357    0.9795    0.0127
 C    0.2900    0.9583    0.0260
 C    0.2074    0.9151    0.0511
 C    0.2643    0.9722    0.0517
 H    0.2757    0.9956    0.0606
 C    0.4617    0.9527    0.0251
 C    0.2322    0.9052    0.0253
 H    0.2200    0.8828    0.0163
 C    0.3042    0.9946    0.0394
 C    0.1915    0.8839    0.0375
 H    0.1521    0.8475    0.0367
 O    0.9117    0.7500    0.1137
 O    0.7714    0.6496    0.1264
 O    0.0000    0.8699    0.1104
 O    0.1004    0.5214    0.1236
 O    0.8996    0.5214    0.1236
 O    0.0000    0.6617    0.1363
 O    0.8801    0.7500    0.1396
 O    0.1199    0.7500    0.1396
 O    0.0777    0.8255    0.0859
 O    0.8660    0.5975    0.1473
 O    0.4117    0.2500    0.6137
 O    0.5000    0.3699    0.6104
 O    0.2714    0.3504    0.6264
Zr    0.6028    0.3528    0.6250
 O    0.5883    0.2500    0.6137
 O    0.7286    0.3504    0.6264
 O    0.5000    0.1301    0.6104
 O    0.3996    0.4786    0.6236
 O    0.6004    0.4786    0.6236
 O    0.5000    0.3383    0.6363
 O    0.6199    0.2500    0.6396
 O    0.3801    0.2500    0.6396
 O    0.6340    0.4025    0.6473
Zr    0.0000    0.2500    0.8483
 O    0.0755    0.3277    0.8359
 C    0.1182    0.3831    0.8397
 C    0.1533    0.4296    0.8278
 H    0.1874    0.4692    0.8302
 C    0.1374    0.4161    0.8139
 H    0.1041    0.3749    0.8120
 C    0.2500    0.5481    0.7500
 H    0.2500    0.4943    0.7500
 C    0.2283    0.6668    0.7628
 C    0.2295    0.5857    0.7627
 C    0.2083    0.5400    0.7760
 C    0.1651    0.4574    0.8011
 C    0.2222    0.5143    0.8017
 H    0.2456    0.5257    0.8106
 C    0.2500    0.7083    0.7500
 C    0.2027    0.7117    0.7751
 H    0.1853    0.6859    0.7834
 C    0.1552    0.4822    0.7753
 H    0.1328    0.4700    0.7663
 C    0.2446    0.5542    0.7894
 H    0.2841    0.5906    0.7899
 C    0.1339    0.4415    0.7875
 H    0.0975    0.4021    0.7867
 O    0.4245    0.3277    0.6641
 C    0.3626    0.4161    0.6861
 H    0.3959    0.3749    0.6880
 C    0.2717    0.6668    0.7372
 C    0.2705    0.5857    0.7373
 C    0.2917    0.5400    0.7240
 C    0.3349    0.4574    0.6989
 C    0.2778    0.5143    0.6983
 H    0.2544    0.5257    0.6894
 C    0.2973    0.7117    0.7249
 H    0.3147    0.6859    0.7166
 C    0.3448    0.4822    0.7247
 H    0.3672    0.4700    0.7337
 C    0.2554    0.5542    0.7106
 H    0.2159    0.5906    0.7101
 C    0.3661    0.4415    0.7125
 H    0.4025    0.4021    0.7133
 O    0.4245    0.1723    0.6641
 O    0.3660    0.0975    0.6473
 C    0.3818    0.1169    0.6603
 C    0.3467    0.0704    0.6722
 H    0.3126    0.0308    0.6698
 C    0.3626    0.0839    0.6861
 H    0.3959    0.1251    0.6880
 C    0.2500    0.9519    0.7500
 C    0.2717    0.8332    0.7372
 C    0.2705    0.9143    0.7373
 C    0.2917    0.9600    0.7240
 C    0.3349    0.0426    0.6989
 C    0.2778    0.9857    0.6983
 H    0.2544    0.9743    0.6894
 C    0.2500    0.7917    0.7500
 C    0.2973    0.7883    0.7249
 H    0.3147    0.8141    0.7166
 C    0.3448    0.0178    0.7247
 H    0.3672    0.0300    0.7337
 C    0.2554    0.9458    0.7106
 H    0.2159    0.9094    0.7101
 C    0.3661    0.0585    0.7125
 H    0.4025    0.0979    0.7133
 C    0.1182    0.1169    0.8397
 C    0.1533    0.0704    0.8278
 H    0.1874    0.0308    0.8302
 C    0.1374    0.0839    0.8139
 H    0.1041    0.1251    0.8120
 C    0.2283    0.8332    0.7628
 C    0.2295    0.9143    0.7627
 C    0.2083    0.9600    0.7760
 C    0.1651    0.0426    0.8011
 C    0.2222    0.9857    0.8017
 H    0.2456    0.9743    0.8106
 C    0.2027    0.7883    0.7751
 H    0.1853    0.8141    0.7834
 C    0.1552    0.0178    0.7753
 H    0.1328    0.0300    0.7663
 C    0.2446    0.9458    0.7894
 H    0.2841    0.9094    0.7899
 C    0.1339    0.0585    0.7875
 H    0.0975    0.0979    0.7867
 O    0.0000    0.3383    0.8637
 O    0.7714    0.3504    0.8736
Zr    0.5000    0.2500    0.6517
Zr    0.3972    0.3528    0.6250
 O    0.9245    0.1723    0.8359
 O    0.0755    0.1723    0.8359
 O    0.9245    0.3277    0.8359
 O    0.8660    0.4025    0.8527
Zr    0.5000    0.7500    0.3483
 O    0.5000    0.8383    0.3637
 O    0.4245    0.6723    0.3359
 O    0.6004    0.9786    0.3764
 C    0.3818    0.6169    0.3397
 C    0.3467    0.5704    0.3278
 H    0.3126    0.5308    0.3302
 C    0.3626    0.5839    0.3139
 H    0.3959    0.6251    0.3120
 C    0.2500    0.4519    0.2500
 H    0.2500    0.5057    0.2500
 C    0.2717    0.3332    0.2628
 C    0.2705    0.4143    0.2627
 C    0.2917    0.4600    0.2760
 C    0.3349    0.5426    0.3011
 C    0.2778    0.4857    0.3017
 H    0.2544    0.4743    0.3106
 C    0.2500    0.2917    0.2500
 C    0.2973    0.2883    0.2751
 H    0.3147    0.3141    0.2834
 C    0.3448    0.5178    0.2753
 H    0.3672    0.5300    0.2663
 C    0.2554    0.4458    0.2894
 H    0.2159    0.4094    0.2899
 C    0.3661    0.5585    0.2875
 H    0.4025    0.5979    0.2867
 O    0.0755    0.6723    0.1641
 O    0.1340    0.5975    0.1473
 C    0.1182    0.6169    0.1603
 C    0.1533    0.5704    0.1722
 H    0.1874    0.5308    0.1698
 C    0.1374    0.5839    0.1861
 H    0.1041    0.6251    0.1880
 C    0.2283    0.3332    0.2372
 C    0.2295    0.4143    0.2373
 C    0.2083    0.4600    0.2240
 C    0.1651    0.5426    0.1989
 C    0.2222    0.4857    0.1983
 H    0.2456    0.4743    0.1894
 C    0.2027    0.2883    0.2249
 H    0.1853    0.3141    0.2166
 C    0.1552    0.5178    0.2247
 H    0.1328    0.5300    0.2337
 C    0.2446    0.4458    0.2106
 H    0.2841    0.4094    0.2101
 C    0.1339    0.5585    0.2125
 H    0.0975    0.5979    0.2133
 O    0.0755    0.8277    0.1641
 O    0.1340    0.9025    0.1473
 C    0.1182    0.8831    0.1603
 C    0.1533    0.9296    0.1722
 H    0.1874    0.9692    0.1698
 C    0.1374    0.9161    0.1861
 H    0.1041    0.8749    0.1880
 C    0.2500    0.0481    0.2500
 C    0.2283    0.1668    0.2372
 C    0.2295    0.0857    0.2373
 C    0.2083    0.0400    0.2240
 C    0.1651    0.9574    0.1989
 C    0.2222    0.0143    0.1983
 H    0.2456    0.0257    0.1894
 C    0.2500    0.2083    0.2500
 C    0.2027    0.2117    0.2249
 H    0.1853    0.1859    0.2166
 C    0.1552    0.9822    0.2247
 H    0.1328    0.9700    0.2337
 C    0.2446    0.0542    0.2106
 H    0.2841    0.0906    0.2101
 C    0.1339    0.9415    0.2125
 H    0.0975    0.9021    0.2133
 O    0.3660    0.9025    0.3527
 C    0.3818    0.8831    0.3397
 C    0.3467    0.9296    0.3278
 H    0.3126    0.9692    0.3302
 C    0.3626    0.9161    0.3139
 H    0.3959    0.8749    0.3120
 C    0.2717    0.1668    0.2628
 C    0.2705    0.0857    0.2627
 C    0.2917    0.0400    0.2760
 C    0.3349    0.9574    0.3011
 C    0.2778    0.0143    0.3017
 H    0.2544    0.0257    0.3106
 C    0.2973    0.2117    0.2751
 H    0.3147    0.1859    0.2834
 C    0.3448    0.9822    0.2753
 H    0.3672    0.9700    0.2663
 C    0.2554    0.0542    0.2894
 H    0.2159    0.0906    0.2899
 C    0.3661    0.9415    0.2875
 H    0.4025    0.9021    0.2867
Zr    0.0000    0.7500    0.1517
Zr    0.1028    0.8528    0.1250
 O    0.5755    0.8277    0.3359
 O    0.4245    0.8277    0.3359
 O    0.5755    0.6723    0.3359
 O    0.6340    0.9025    0.3527
Zr    0.0000    0.2500    0.9017
 O    0.9117    0.2500    0.8863
 O    0.0000    0.1301    0.8896
 O    0.0777    0.3255    0.9141
 O    0.7714    0.1496    0.8736
 C    0.1331    0.3682    0.9103
 C    0.1796    0.4033    0.9222
 H    0.2192    0.4374    0.9198
 C    0.1661    0.3874    0.9361
 H    0.1249    0.3541    0.9380
 C    0.2981    0.5000    0.0000
 H    0.2443    0.5000    0.0000
 C    0.4168    0.4783    0.9872
 C    0.3357    0.4795    0.9873
 C    0.2900    0.4583    0.9740
 C    0.2074    0.4151    0.9489
 C    0.2643    0.4722    0.9483
 H    0.2757    0.4956    0.9394
 C    0.4583    0.5000    0.0000
 C    0.4617    0.4527    0.9749
 H    0.4359    0.4353    0.9666
 C    0.2322    0.4052    0.9747
 H    0.2200    0.3828    0.9837
 C    0.3042    0.4946    0.9606
 H    0.3406    0.5341    0.9601
 C    0.1915    0.3839    0.9625
 H    0.1521    0.3475    0.9633
 O    0.0777    0.6745    0.0859
 O    0.1525    0.6160    0.1027
 C    0.1331    0.6318    0.0897
 C    0.1796    0.5967    0.0778
 H    0.2192    0.5626    0.0802
 C    0.1661    0.6126    0.0639
 H    0.1249    0.6459    0.0620
 C    0.4168    0.5217    0.0128
 C    0.3357    0.5205    0.0127
 C    0.2900    0.5417    0.0260
 C    0.2074    0.5849    0.0511
 C    0.2643    0.5278    0.0517
 H    0.2757    0.5044    0.0606
 C    0.4617    0.5473    0.0251
 H    0.4359    0.5647    0.0334
 C    0.2322    0.5948    0.0253
 H    0.2200    0.6172    0.0163
 C    0.3042    0.5054    0.0394
 H    0.3406    0.4659    0.0399
 C    0.1915    0.6161    0.0375
 H    0.1521    0.6525    0.0367
 O    0.9223    0.6745    0.0859
 O    0.8475    0.6160    0.1027
 C    0.8669    0.6318    0.0897
 C    0.8204    0.5967    0.0778
 H    0.7808    0.5626    0.0802
 C    0.8339    0.6126    0.0639
 H    0.8751    0.6459    0.0620
 C    0.7019    0.5000    0.0000
 H    0.7557    0.5000    0.0000
 C    0.5832    0.5217    0.0128
 C    0.6643    0.5205    0.0127
 C    0.7100    0.5417    0.0260
 C    0.7926    0.5849    0.0511
 C    0.7357    0.5278    0.0517
 H    0.7243    0.5044    0.0606
 C    0.5417    0.5000    0.0000
 C    0.5383    0.5473    0.0251
 H    0.5641    0.5647    0.0334
 C    0.7678    0.5948    0.0253
 H    0.7800    0.6172    0.0163
 C    0.6958    0.5054    0.0394
 H    0.6594    0.4659    0.0399
 C    0.8085    0.6161    0.0375
 H    0.8479    0.6525    0.0367
 O    0.8475    0.3840    0.8973
 C    0.8669    0.3682    0.9103
 C    0.8204    0.4033    0.9222
 H    0.7808    0.4374    0.9198
 C    0.8339    0.3874    0.9361
 H    0.8751    0.3541    0.9380
 C    0.5832    0.4783    0.9872
 C    0.6643    0.4795    0.9873
 C    0.7100    0.4583    0.9740
 C    0.7926    0.4151    0.9489
 C    0.7357    0.4722    0.9483
 H    0.7243    0.4956    0.9394
 C    0.5383    0.4527    0.9749
 H    0.5641    0.4353    0.9666
 C    0.7678    0.4052    0.9747
 H    0.7800    0.3828    0.9837
 C    0.6958    0.4946    0.9606
 H    0.6594    0.5341    0.9601
 C    0.8085    0.3839    0.9625
 H    0.8479    0.3475    0.9633
Zr    0.1028    0.1472    0.8750
 O    0.0883    0.2500    0.8863
 O    0.2286    0.1496    0.8736
 O    0.0000    0.3699    0.8896
 O    0.8996    0.0214    0.8764
 O    0.1004    0.0214    0.8764
Zr    0.1028    0.6472    0.1250
Zr    0.1028    0.3528    0.8750
Zr    0.8972    0.3528    0.8750
Zr    0.8972    0.6472    0.1250
 O    0.0000    0.1617    0.8637
 O    0.1199    0.2500    0.8604
 O    0.8801    0.2500    0.8604
 O    0.9223    0.1745    0.9141
 O    0.9223    0.3255    0.9141
 O    0.0777    0.1745    0.9141
 O    0.8660    0.0975    0.8527
 O    0.8475    0.1160    0.8973
 O    0.1340    0.0975    0.8527
 O    0.1525    0.1160    0.8973
 O    0.7286    0.8504    0.3736
 C    0.3669    0.6318    0.4103
 C    0.3204    0.5967    0.4222
 H    0.2808    0.5626    0.4198
 C    0.3339    0.6126    0.4361
 H    0.3751    0.6459    0.4380
 C    0.2019    0.5000    0.5000
 H    0.2557    0.5000    0.5000
 C    0.0832    0.5217    0.4872
 C    0.1643    0.5205    0.4873
 C    0.2100    0.5417    0.4740
 C    0.2926    0.5849    0.4489
 C    0.2357    0.5278    0.4483
 H    0.2243    0.5044    0.4394
 C    0.0417    0.5000    0.5000
 C    0.0383    0.5473    0.4749
 H    0.0641    0.5647    0.4666
 C    0.2678    0.5948    0.4747
 H    0.2800    0.6172    0.4837
 C    0.1958    0.5054    0.4606
 H    0.1594    0.4659    0.4601
 C    0.3085    0.6161    0.4625
 H    0.3479    0.6525    0.4633
 O    0.4223    0.3255    0.5859
 O    0.3475    0.3840    0.6027
 C    0.3669    0.3682    0.5897
 C    0.3204    0.4033    0.5778
 H    0.2808    0.4374    0.5802
 C    0.3339    0.3874    0.5639
 H    0.3751    0.3541    0.5620
 C    0.0832    0.4783    0.5128
 C    0.1643    0.4795    0.5127
 C    0.2100    0.4583    0.5260
 C    0.2926    0.4151    0.5511
 C    0.2357    0.4722    0.5517
 H    0.2243    0.4956    0.5606
 C    0.0383    0.4527    0.5251
 H    0.0641    0.4353    0.5334
 C    0.2678    0.4052    0.5253
 H    0.2800    0.3828    0.5163
 C    0.1958    0.4946    0.5394
 H    0.1594    0.5341    0.5399
 C    0.3085    0.3839    0.5375
 H    0.3479    0.3475    0.5367
 O    0.5777    0.3255    0.5859
 O    0.6525    0.3840    0.6027
 C    0.6331    0.3682    0.5897
 C    0.6796    0.4033    0.5778
 H    0.7192    0.4374    0.5802
 C    0.6661    0.3874    0.5639
 H    0.6249    0.3541    0.5620
 C    0.7981    0.5000    0.5000
 H    0.7443    0.5000    0.5000
 C    0.9168    0.4783    0.5128
 C    0.8357    0.4795    0.5127
 C    0.7900    0.4583    0.5260
 C    0.7074    0.4151    0.5511
 C    0.7643    0.4722    0.5517
 H    0.7757    0.4956    0.5606
 C    0.9583    0.5000    0.5000
 C    0.9617    0.4527    0.5251
 H    0.9359    0.4353    0.5334
 C    0.7322    0.4052    0.5253
 H    0.7200    0.3828    0.5163
 C    0.8042    0.4946    0.5394
 H    0.8406    0.5341    0.5399
 C    0.6915    0.3839    0.5375
 H    0.6521    0.3475    0.5367
 C    0.6331    0.6318    0.4103
 C    0.6796    0.5967    0.4222
 H    0.7192    0.5626    0.4198
 C    0.6661    0.6126    0.4361
 H    0.6249    0.6459    0.4380
 C    0.9168    0.5217    0.4872
 C    0.8357    0.5205    0.4873
 C    0.7900    0.5417    0.4740
 C    0.7074    0.5849    0.4489
 C    0.7643    0.5278    0.4483
 H    0.7757    0.5044    0.4394
 C    0.9617    0.5473    0.4749
 H    0.9359    0.5647    0.4666
 C    0.7322    0.5948    0.4747
 H    0.7200    0.6172    0.4837
 C    0.8042    0.5054    0.4606
 H    0.8406    0.4659    0.4601
 C    0.6915    0.6161    0.4625
 H    0.6521    0.6525    0.4633
 O    0.2714    0.8504    0.3736
 O    0.3996    0.9786    0.3764
 C    0.8818    0.8831    0.1603
 C    0.8467    0.9296    0.1722
 H    0.8126    0.9692    0.1698
 C    0.8626    0.9161    0.1861
 H    0.8959    0.8749    0.1880
 C    0.7500    0.0481    0.2500
 C    0.7717    0.1668    0.2372
 C    0.7705    0.0857    0.2373
 C    0.7917    0.0400    0.2240
 C    0.8349    0.9574    0.1989
 C    0.7778    0.0143    0.1983
 H    0.7544    0.0257    0.1894
 C    0.7500    0.2083    0.2500
 C    0.7973    0.2117    0.2249
 H    0.8147    0.1859    0.2166
 C    0.8448    0.9822    0.2247
 H    0.8672    0.9700    0.2337
 C    0.7554    0.0542    0.2106
 H    0.7159    0.0906    0.2101
 C    0.8661    0.9415    0.2125
 H    0.9025    0.9021    0.2133
 C    0.6182    0.8831    0.3397
 C    0.6533    0.9296    0.3278
 H    0.6874    0.9692    0.3302
 C    0.6374    0.9161    0.3139
 H    0.6041    0.8749    0.3120
 C    0.7283    0.1668    0.2628
 C    0.7295    0.0857    0.2627
 C    0.7083    0.0400    0.2760
 C    0.6651    0.9574    0.3011
 C    0.7222    0.0143    0.3017
 H    0.7456    0.0257    0.3106
 C    0.7027    0.2117    0.2751
 H    0.6853    0.1859    0.2834
 C    0.6552    0.9822    0.2753
 H    0.6328    0.9700    0.2663
 C    0.7446    0.0542    0.2894
 H    0.7841    0.0906    0.2899
 C    0.6339    0.9415    0.2875
 H    0.5975    0.9021    0.2867
 C    0.6182    0.6169    0.3397
 C    0.6533    0.5704    0.3278
 H    0.6874    0.5308    0.3302
 C    0.6374    0.5839    0.3139
 H    0.6041    0.6251    0.3120
 C    0.7500    0.4519    0.2500
 H    0.7500    0.5057    0.2500
 C    0.7283    0.3332    0.2628
 C    0.7295    0.4143    0.2627
 C    0.7083    0.4600    0.2760
 C    0.6651    0.5426    0.3011
 C    0.7222    0.4857    0.3017
 H    0.7456    0.4743    0.3106
 C    0.7500    0.2917    0.2500
 C    0.7027    0.2883    0.2751
 H    0.6853    0.3141    0.2834
 C    0.6552    0.5178    0.2753
 H    0.6328    0.5300    0.2663
 C    0.7446    0.4458    0.2894
 H    0.7841    0.4094    0.2899
 C    0.6339    0.5585    0.2875
 H    0.5975    0.5979    0.2867
 C    0.8818    0.6169    0.1603
 C    0.8467    0.5704    0.1722
 H    0.8126    0.5308    0.1698
 C    0.8626    0.5839    0.1861
 H    0.8959    0.6251    0.1880
 C    0.7717    0.3332    0.2372
 C    0.7705    0.4143    0.2373
 C    0.7917    0.4600    0.2240
 C    0.8349    0.5426    0.1989
 C    0.7778    0.4857    0.1983
 H    0.7544    0.4743    0.1894
 C    0.7973    0.2883    0.2249
 H    0.8147    0.3141    0.2166
 C    0.8448    0.5178    0.2247
 H    0.8672    0.5300    0.2337
 C    0.7554    0.4458    0.2106
 H    0.7159    0.4094    0.2101
 C    0.8661    0.5585    0.2125
 H    0.9025    0.5979    0.2133
 O    0.1004    0.9786    0.1236
 O    0.2286    0.8504    0.1264
 C    0.6182    0.1169    0.6603
 C    0.6533    0.0704    0.6722
 H    0.6874    0.0308    0.6698
 C    0.6374    0.0839    0.6861
 H    0.6041    0.1251    0.6880
 C    0.7500    0.9519    0.7500
 C    0.7283    0.8332    0.7372
 C    0.7295    0.9143    0.7373
 C    0.7083    0.9600    0.7240
 C    0.6651    0.0426    0.6989
 C    0.7222    0.9857    0.6983
 H    0.7456    0.9743    0.6894
 C    0.7500    0.7917    0.7500
 C    0.7027    0.7883    0.7249
 H    0.6853    0.8141    0.7166
 C    0.6552    0.0178    0.7247
 H    0.6328    0.0300    0.7337
 C    0.7446    0.9458    0.7106
 H    0.7841    0.9094    0.7101
 C    0.6339    0.0585    0.7125
 H    0.5975    0.0979    0.7133
 C    0.8818    0.1169    0.8397
 C    0.8467    0.0704    0.8278
 H    0.8126    0.0308    0.8302
 C    0.8626    0.0839    0.8139
 H    0.8959    0.1251    0.8120
 C    0.7717    0.8332    0.7628
 C    0.7705    0.9143    0.7627
 C    0.7917    0.9600    0.7760
 C    0.8349    0.0426    0.8011
 C    0.7778    0.9857    0.8017
 H    0.7544    0.9743    0.8106
 C    0.7973    0.7883    0.7751
 H    0.8147    0.8141    0.7834
 C    0.8448    0.0178    0.7753
 H    0.8672    0.0300    0.7663
 C    0.7554    0.9458    0.7894
 H    0.7159    0.9094    0.7899
 C    0.8661    0.0585    0.7875
 H    0.9025    0.0979    0.7867
 C    0.8818    0.3831    0.8397
 C    0.8467    0.4296    0.8278
 H    0.8126    0.4692    0.8302
 C    0.8626    0.4161    0.8139
 H    0.8959    0.3749    0.8120
 C    0.7500    0.5481    0.7500
 H    0.7500    0.4943    0.7500
 C    0.7717    0.6668    0.7628
 C    0.7705    0.5857    0.7627
 C    0.7917    0.5400    0.7760
 C    0.8349    0.4574    0.8011
 C    0.7778    0.5143    0.8017
 H    0.7544    0.5257    0.8106
 C    0.7500    0.7083    0.7500
 C    0.7973    0.7117    0.7751
 H    0.8147    0.6859    0.7834
 C    0.8448    0.4822    0.7753
 H    0.8672    0.4700    0.7663
 C    0.7554    0.5542    0.7894
 H    0.7159    0.5906    0.7899
 C    0.8661    0.4415    0.7875
 H    0.9025    0.4021    0.7867
 C    0.6182    0.3831    0.6603
 C    0.6533    0.4296    0.6722
 H    0.6874    0.4692    0.6698
 C    0.6374    0.4161    0.6861
 H    0.6041    0.3749    0.6880
 C    0.7283    0.6668    0.7372
 C    0.7295    0.5857    0.7373
 C    0.7083    0.5400    0.7240
 C    0.6651    0.4574    0.6989
 C    0.7222    0.5143    0.6983
 H    0.7456    0.5257    0.6894
 C    0.7027    0.7117    0.7249
 H    0.6853    0.6859    0.7166
 C    0.6552    0.4822    0.7247
 H    0.6328    0.4700    0.7337
 C    0.7446    0.5542    0.7106
 H    0.7841    0.5906    0.7101
 C    0.6339    0.4415    0.7125
 H    0.5975    0.4021    0.7133
 O    0.3996    0.0214    0.6236
 O    0.2714    0.1496    0.6264
 H    0.3774    0.5048    0.3859
 H    0.3685    0.4990    0.3683
 H    0.4322    0.0055    0.6152
 H    0.4215    0.9997    0.6327
 H    0.7511    0.6295    0.3828
 H    0.7458    0.6167    0.3653
 H    0.7493    0.1884    0.6194
 H    0.7443    0.1638    0.6365
 H    0.5461    0.4970    0.6243
 H    0.6315    0.5010    0.6317
 H    0.6226    0.9952    0.3859
 H    0.6315    0.0010    0.3683
 H    0.2489    0.8705    0.3828
 H    0.2542    0.8833    0.3653
 H    0.2537    0.2964    0.6280
 H    0.2542    0.3833    0.6347
 H    0.2504    0.0976    0.6240
 H    0.3774    0.4952    0.6141
 H    0.7511    0.3705    0.6172
 H    0.6539    0.0016    0.6222
 H    0.5461    0.5030    0.3757
 H    0.2537    0.7036    0.3720
 H    0.4539    0.9970    0.3757
 H    0.7463    0.7964    0.3720
 H    0.6348    0.2500    0.6073
 H    0.6669    0.7500    0.3541
 H    0.3331    0.7500    0.3541
 H    0.3652    0.2500    0.6073
 H    0.5000    0.5831    0.3959
 H    0.5000    0.9169    0.3959
 H    0.5000    0.3848    0.6427
 H    0.5000    0.1152    0.6427
 H    0.1205    0.9989    0.8672
 H    0.8609    0.0038    0.8837
 H    0.8869    0.9989    0.8667
 H    0.7548    0.1968    0.8682
 H    0.7544    0.3798    0.8648
 H    0.7535    0.2959    0.8728
 H    0.9529    0.4960    0.8788
 H    0.2470    0.2039    0.8743
 H    0.2510    0.1185    0.8817
 H    0.2511    0.3744    0.8825
 H    0.1244    0.5011    0.8675
 H    0.0459    0.4965    0.8772
 H    0.9517    0.1218    0.8839
 H    0.8271    0.2500    0.8562
 H    0.1669    0.2500    0.8541
 H    0.0077    0.4137    0.8965
 H    0.1226    0.5048    0.1141
 H    0.2463    0.7036    0.1280
 H    0.2458    0.6167    0.1347
 H    0.2511    0.8705    0.1172
 H    0.9529    0.5040    0.1212
 H    0.8836    0.4989    0.1331
 H    0.7500    0.6771    0.1178
 H    0.7489    0.8744    0.1175
 H    0.7535    0.7959    0.1272
 H    0.8756    0.0011    0.1325
 H    0.0461    0.9970    0.1243
 H    0.1315    0.0010    0.1317
 H    0.9585    0.6727    0.1291
 H    0.9883    0.8876    0.1415
 H    0.1348    0.7500    0.1073
 H    0.9651    0.7500    0.1097
 H    0.8406    0.0341    0.4601
 H    0.8406    0.9659    0.5399
 H    0.1594    0.9659    0.5399
 H    0.1594    0.0341    0.4601
 C    0.4583    0.0000    0.0000
 C    0.5417    0.0000    0.0000
 C    0.7019    0.0000    0.0000
 H    0.7557    0.0000    0.0000
 H    0.6594    0.0341    0.0399
 H    0.6594    0.9659    0.9601
 C    0.2981    0.0000    0.0000
 H    0.2443    0.0000    0.0000
 H    0.3406    0.9659    0.9601
 H    0.3406    0.0341    0.0399
 H    0.2500    0.0057    0.7500
 H    0.2500    0.9943    0.2500
 H    0.7500    0.9943    0.2500
 H    0.7500    0.0057    0.7500


