data_crystal

_cell_length_a    18.96800
_cell_length_b    19.91900
_cell_length_c    31.73900
_cell_angle_alpha 90.00000
_cell_angle_beta  95.29000
_cell_angle_gamma 90.00000

_symmetry_space_group_name_Hall 'P 1'
_symmetry_space_group_name_H-M  'P 1'

loop_
_symmetry_equiv_pos_as_xyz
 'x,y,z'

loop_
_atom_site_label
_atom_site_type_symbol
_atom_site_fract_x
_atom_site_fract_y
_atom_site_fract_z
H          H       0.91620   0.18240   0.83710
H          H       0.09450   0.18240   0.16290
H          H       0.59610   0.70540   0.67620
Zn         Zn      0.35820   0.85900   0.40850
Zn         Zn      0.14390   0.08890   0.17480
O          O       0.42580   0.82240   0.33230
O          O       0.46250   0.84130   0.39570
O          O       0.56070   0.81480   0.31370
O          O       0.23840   0.27130   0.03720
O          O       0.16720   0.26000   0.08960
O          O       0.29220   0.14910   0.05080
O          O       0.88280   0.39920   0.96490
O          O       0.77800   0.44520   0.96850
O          O       0.81920   0.47840   0.05440
O          O       0.14840   0.09440   0.23540
O          O       0.11300   0.19960   0.24260
O          O       0.07600   0.18300   0.32420
O          O       0.30980   0.91880   0.36920
O          O       0.20870   0.86320   0.37880
O          O       0.12520   0.95780   0.33300
O          O       0.22800   0.47390   0.31380
O          O       0.28450   0.55400   0.34610
O          O       0.09520   0.52540   0.31860
O          O       0.14190   0.18240   0.16290
O          O       0.07190   0.07980   0.16320
C          C       0.46960   0.82630   0.36020
C          C       0.54400   0.79870   0.35540
C          C       0.54840   0.72060   0.35840
C          C       0.59040   0.87400   0.30670
C          C       0.58230   0.93210   0.33100
C          C       0.61230   0.99050   0.31950
C          C       0.64850   0.99300   0.28300
C          C       0.65510   0.93630   0.25730
C          C       0.62310   0.88040   0.26850
C          C       0.61160   0.05370   0.34670
C          C       0.69350   0.93640   0.21820
C          C       0.13100   0.14930   0.25990
C          C       0.12780   0.14040   0.30530
C          C       0.20010   0.16100   0.32560
C          C       0.00640   0.16260   0.31090
C          C       0.99000   0.11030   0.28480
C          C       0.91950   0.09260   0.27180
C          C       0.86780   0.13760   0.28740
C          C       0.88440   0.19210   0.31350
C          C       0.95470   0.20250   0.32480
C          C       0.90120   0.03560   0.24010
C          C       0.82800   0.23350   0.32730
C          C       0.83770   0.43340   0.98270
C          C       0.87100   0.46530   0.02420
C          C       0.78350   0.42400   0.07310
C          C       0.79230   0.36300   0.05920
C          C       0.75240   0.30880   0.07800
C          C       0.70900   0.32500   0.10990
C          C       0.70390   0.39090   0.12190
C          C       0.74310   0.43610   0.10330
C          C       0.75890   0.23390   0.06380
C          C       0.66210   0.41050   0.15900
C          C       0.20960   0.23960   0.06330
C          C       0.22990   0.16770   0.06900
C          C       0.17500   0.12170   0.04540
C          C       0.35830   0.16430   0.07140
C          C       0.41350   0.13830   0.05710
C          C       0.47970   0.14970   0.07680
C          C       0.48630   0.19460   0.11080
C          C       0.42670   0.22190   0.12590
C          C       0.36080   0.20560   0.10630
C          C       0.54390   0.11750   0.05920
C          C       0.43430   0.27140   0.16590
C          C       0.68620   0.05960   0.26930
C          C       0.75360   0.07310   0.28550
C          C       0.79050   0.12390   0.26880
C          C       0.76270   0.16510   0.23540
C          C       0.80090   0.21340   0.21520
C          C       0.77270   0.24950   0.18300
C          C       0.70010   0.23740   0.16530
C          C       0.66930   0.27370   0.12870
C          C       0.60070   0.25870   0.11450
C          C       0.55890   0.20730   0.13200
C          C       0.58800   0.17370   0.16660
C          C       0.55180   0.12220   0.18560
C          C       0.58090   0.08560   0.21840
C          C       0.65360   0.09790   0.23550
C          C       0.69110   0.14670   0.21960
C          C       0.65960   0.18880   0.18360
C          C       0.24360   0.90690   0.36010
C          C       0.20440   0.96010   0.32950
C          C       0.21480   0.93500   0.28390
C          C       0.10750   0.99430   0.36760
C          C       0.15510   0.01760   0.39930
C          C       0.12760   0.05490   0.43280
C          C       0.05530   0.06730   0.43190
C          C       0.00820   0.04090   0.39810
C          C       0.03460   0.00320   0.36840
C          C       0.00010   0.07210   0.50000
C          C       0.02610   0.10680   0.46670
C          C       0.93080   0.05610   0.39730
C          C       0.18240   0.08460   0.46820
C          C       0.02700   0.18000   0.46630
C          C       0.00010   0.21160   0.50000
C          C       0.00010   0.28350   0.50000
C          C       0.02400   0.32140   0.46500
C          C       0.04800   0.28000   0.43180
C          C       0.04940   0.21470   0.43120
C          C       0.00010   0.42080   0.50000
C          C       0.02290   0.39140   0.46570
C          C       0.04320   0.42620   0.42820
C          C       0.99690   0.43490   0.39230
C          C       0.01500   0.46370   0.35460
C          C       0.07570   0.49570   0.35520
C          C       0.12410   0.49400   0.39140
C          C       0.10930   0.46260   0.42780
C          C       0.16140   0.45650   0.46960
C          C       0.92410   0.40220   0.39330
C          C       0.89770   0.53890   0.01580
C          C       0.15080   0.60520   0.27740
C          C       0.21700   0.54000   0.32150
C          C       0.15170   0.56930   0.31860
O          O       0.69030   0.91880   0.63080
O          O       0.79140   0.86320   0.62120
O          O       0.87490   0.95780   0.66700
O          O       0.77210   0.47390   0.68620
O          O       0.71550   0.55400   0.65390
O          O       0.90480   0.52540   0.68140
C          C       0.75650   0.90690   0.63990
C          C       0.79570   0.96010   0.67050
C          C       0.78520   0.93500   0.71610
C          C       0.89250   0.99430   0.63240
C          C       0.84490   0.01760   0.60070
C          C       0.87260   0.05490   0.56720
C          C       0.94480   0.06730   0.56810
C          C       0.99180   0.04090   0.60190
C          C       0.96550   0.00320   0.63160
C          C       0.97390   0.10680   0.53330
C          C       0.06940   0.05610   0.60270
C          C       0.81780   0.08460   0.53180
C          C       0.97300   0.18000   0.53370
C          C       0.97600   0.32140   0.53500
C          C       0.95220   0.28000   0.56820
C          C       0.95060   0.21470   0.56880
C          C       0.97710   0.39140   0.53430
C          C       0.95680   0.42620   0.57180
C          C       0.00320   0.43490   0.60770
C          C       0.98520   0.46370   0.64540
C          C       0.92430   0.49570   0.64480
C          C       0.87590   0.49400   0.60860
C          C       0.89070   0.46260   0.57220
C          C       0.83860   0.45650   0.53040
C          C       0.07590   0.40220   0.60670
C          C       0.84920   0.60520   0.72260
C          C       0.78310   0.54000   0.67850
C          C       0.84840   0.56930   0.68140
Zn         Zn      0.64190   0.85900   0.59150
Zn         Zn      0.85620   0.08890   0.82520
O          O       0.57430   0.82240   0.66770
O          O       0.53760   0.84130   0.60430
O          O       0.43940   0.81480   0.68630
O          O       0.76170   0.27130   0.96280
O          O       0.83290   0.26000   0.91040
O          O       0.70790   0.14910   0.94920
O          O       0.11730   0.39920   0.03510
O          O       0.22210   0.44520   0.03150
O          O       0.18090   0.47840   0.94560
O          O       0.85170   0.09440   0.76460
O          O       0.88710   0.19960   0.75740
O          O       0.92410   0.18300   0.67580
O          O       0.85820   0.18240   0.83710
O          O       0.92820   0.07980   0.83680
C          C       0.53050   0.82630   0.63980
C          C       0.45600   0.79870   0.64460
C          C       0.45170   0.72060   0.64160
C          C       0.40970   0.87400   0.69330
C          C       0.41780   0.93210   0.66900
C          C       0.38780   0.99050   0.68050
C          C       0.35160   0.99300   0.71700
C          C       0.34500   0.93630   0.74270
C          C       0.37700   0.88040   0.73150
C          C       0.38850   0.05370   0.65330
C          C       0.30660   0.93640   0.78180
C          C       0.86910   0.14930   0.74010
C          C       0.87230   0.14040   0.69470
C          C       0.80000   0.16100   0.67440
C          C       0.99370   0.16260   0.68910
C          C       0.01010   0.11030   0.71520
C          C       0.08060   0.09260   0.72820
C          C       0.13230   0.13760   0.71260
C          C       0.11570   0.19210   0.68650
C          C       0.04540   0.20250   0.67520
C          C       0.09890   0.03560   0.75990
C          C       0.17210   0.23350   0.67270
C          C       0.16240   0.43340   0.01730
C          C       0.12910   0.46530   0.97580
C          C       0.21660   0.42400   0.92690
C          C       0.20780   0.36300   0.94080
C          C       0.24770   0.30880   0.92200
C          C       0.29110   0.32500   0.89010
C          C       0.29620   0.39090   0.87810
C          C       0.25700   0.43610   0.89670
C          C       0.24120   0.23390   0.93620
C          C       0.33800   0.41050   0.84100
C          C       0.79050   0.23960   0.93670
C          C       0.77020   0.16770   0.93100
C          C       0.82510   0.12170   0.95460
C          C       0.64180   0.16430   0.92860
C          C       0.58660   0.13830   0.94290
C          C       0.52040   0.14970   0.92320
C          C       0.51380   0.19460   0.88920
C          C       0.57340   0.22190   0.87410
C          C       0.63930   0.20560   0.89370
C          C       0.45620   0.11750   0.94080
C          C       0.56580   0.27140   0.83410
C          C       0.31390   0.05960   0.73070
C          C       0.24650   0.07310   0.71450
C          C       0.20960   0.12390   0.73120
C          C       0.23740   0.16510   0.76460
C          C       0.19920   0.21340   0.78480
C          C       0.22740   0.24950   0.81700
C          C       0.30000   0.23740   0.83470
C          C       0.33080   0.27370   0.87130
C          C       0.39940   0.25870   0.88550
C          C       0.44120   0.20730   0.86800
C          C       0.41210   0.17370   0.83340
C          C       0.44830   0.12220   0.81440
C          C       0.41920   0.08560   0.78160
C          C       0.34650   0.09790   0.76450
C          C       0.30900   0.14670   0.78040
C          C       0.34050   0.18880   0.81640
C          C       0.10240   0.53890   0.98420
Zn         Zn      0.85830   0.35900   0.90850
Zn         Zn      0.14190   0.35900   0.09150
Zn         Zn      0.64400   0.58890   0.67480
Zn         Zn      0.35610   0.58890   0.32520
O          O       0.66720   0.76000   0.58960
O          O       0.33280   0.76000   0.41040
O          O       0.38280   0.89920   0.46490
O          O       0.61720   0.89920   0.53510
O          O       0.78460   0.05400   0.84610
O          O       0.21550   0.05400   0.15390
N          N       0.15570   0.86700   0.46300
C          C       0.13460   0.89890   0.50130
C          C       0.08610   0.86460   0.43480
N          N       0.84430   0.86700   0.53700
C          C       0.86540   0.89890   0.49870
C          C       0.91400   0.86460   0.56520
O          O       0.92580   0.32240   0.83230
O          O       0.96250   0.34130   0.89570
O          O       0.06070   0.31480   0.81370
O          O       0.73840   0.77130   0.53720
O          O       0.79220   0.64910   0.55080
O          O       0.27800   0.94520   0.46850
O          O       0.31920   0.97840   0.55440
O          O       0.64840   0.59440   0.73540
O          O       0.61300   0.69960   0.74260
O          O       0.57600   0.68300   0.82420
O          O       0.80980   0.41880   0.86920
O          O       0.70880   0.36320   0.87880
O          O       0.62520   0.45780   0.83300
O          O       0.72800   0.97390   0.81380
O          O       0.59520   0.02540   0.81860
O          O       0.64190   0.68240   0.66290
O          O       0.57190   0.57980   0.66320
C          C       0.96960   0.32630   0.86020
C          C       0.04400   0.29870   0.85540
C          C       0.04840   0.22060   0.85840
C          C       0.09040   0.37400   0.80670
C          C       0.08230   0.43220   0.83100
C          C       0.11230   0.49050   0.81950
C          C       0.14850   0.49300   0.78300
C          C       0.15510   0.43630   0.75730
C          C       0.12310   0.38040   0.76850
C          C       0.11160   0.55370   0.84670
C          C       0.19350   0.43640   0.71820
C          C       0.63100   0.64930   0.75990
C          C       0.62780   0.64040   0.80530
C          C       0.70010   0.66100   0.82560
C          C       0.50640   0.66260   0.81090
C          C       0.49000   0.61030   0.78480
C          C       0.41950   0.59260   0.77180
C          C       0.36780   0.63760   0.78740
C          C       0.38440   0.69210   0.81350
C          C       0.45470   0.70250   0.82480
C          C       0.40120   0.53560   0.74010
C          C       0.32800   0.73350   0.82730
C          C       0.33770   0.93340   0.48270
C          C       0.37100   0.96530   0.52420
C          C       0.28350   0.92400   0.57310
C          C       0.29230   0.86300   0.55920
C          C       0.25240   0.80880   0.57800
C          C       0.20900   0.82500   0.60990
C          C       0.20390   0.89090   0.62190
C          C       0.24310   0.93610   0.60330
C          C       0.25890   0.73390   0.56380
C          C       0.16210   0.91050   0.65900
C          C       0.70960   0.73960   0.56330
C          C       0.72990   0.66770   0.56900
C          C       0.67500   0.62170   0.54540
C          C       0.85830   0.66430   0.57140
C          C       0.91350   0.63830   0.55710
C          C       0.97970   0.64970   0.57680
C          C       0.98630   0.69460   0.61080
C          C       0.92670   0.72190   0.62590
C          C       0.86080   0.70560   0.60630
C          C       0.04390   0.61750   0.55920
C          C       0.93430   0.77140   0.66590
C          C       0.18620   0.55960   0.76930
C          C       0.25360   0.57310   0.78550
C          C       0.29050   0.62390   0.76880
C          C       0.26270   0.66510   0.73540
C          C       0.30090   0.71340   0.71520
C          C       0.27270   0.74950   0.68300
C          C       0.20010   0.73740   0.66530
C          C       0.16930   0.77370   0.62870
C          C       0.10070   0.75870   0.61450
C          C       0.05890   0.70730   0.63200
C          C       0.08800   0.67370   0.66660
C          C       0.05180   0.62220   0.68560
C          C       0.08090   0.58560   0.71840
C          C       0.15360   0.59790   0.73550
C          C       0.19110   0.64670   0.71960
C          C       0.15960   0.68880   0.68360
C          C       0.74360   0.40690   0.86010
C          C       0.70440   0.46010   0.82950
C          C       0.71480   0.43500   0.78390
C          C       0.60750   0.49430   0.86760
C          C       0.65510   0.51760   0.89930
C          C       0.62760   0.55490   0.93280
C          C       0.55540   0.56730   0.93190
C          C       0.50820   0.54090   0.89810
C          C       0.53460   0.50320   0.86840
C          C       0.50010   0.57210   0.00000
C          C       0.52610   0.60680   0.96670
C          C       0.43080   0.55610   0.89730
C          C       0.68240   0.58460   0.96820
C          C       0.52700   0.68000   0.96630
C          C       0.50010   0.71160   0.00000
C          C       0.50010   0.78350   0.00000
C          C       0.52400   0.82140   0.96500
C          C       0.54800   0.78000   0.93180
C          C       0.54940   0.71470   0.93120
C          C       0.50010   0.92080   0.00000
C          C       0.52290   0.89140   0.96570
C          C       0.54320   0.92620   0.92820
C          C       0.49690   0.93490   0.89230
C          C       0.51500   0.96370   0.85460
C          C       0.57570   0.99570   0.85520
C          C       0.62410   0.99400   0.89140
C          C       0.60930   0.96260   0.92780
C          C       0.66140   0.95650   0.96960
C          C       0.42410   0.90220   0.89330
C          C       0.39770   0.03890   0.51580
C          C       0.65080   0.10520   0.77740
C          C       0.71700   0.04000   0.82150
C          C       0.65180   0.06930   0.81860
O          O       0.19030   0.41880   0.13080
O          O       0.29140   0.36320   0.12120
O          O       0.37490   0.45780   0.16700
O          O       0.27210   0.97390   0.18620
O          O       0.40480   0.02540   0.18140
C          C       0.25650   0.40690   0.13990
C          C       0.29560   0.46010   0.17050
C          C       0.28520   0.43500   0.21610
C          C       0.39250   0.49430   0.13240
C          C       0.34490   0.51760   0.10070
C          C       0.37260   0.55490   0.06720
C          C       0.44480   0.56730   0.06810
C          C       0.49180   0.54090   0.10190
C          C       0.46550   0.50320   0.13160
C          C       0.47390   0.60680   0.03330
C          C       0.56940   0.55610   0.10270
C          C       0.31770   0.58460   0.03180
C          C       0.47300   0.68000   0.03370
C          C       0.47600   0.82140   0.03500
C          C       0.45220   0.78000   0.06820
C          C       0.45060   0.71470   0.06880
C          C       0.47710   0.89140   0.03430
C          C       0.45680   0.92620   0.07180
C          C       0.50320   0.93490   0.10770
C          C       0.48520   0.96370   0.14540
C          C       0.42430   0.99570   0.14480
C          C       0.37590   0.99400   0.10860
C          C       0.39070   0.96260   0.07220
C          C       0.33860   0.95650   0.03040
C          C       0.57590   0.90220   0.10670
C          C       0.34920   0.10520   0.22260
C          C       0.28310   0.04000   0.17850
C          C       0.34840   0.06930   0.18140
O          O       0.07430   0.32240   0.16770
O          O       0.03750   0.34130   0.10430
O          O       0.93940   0.31480   0.18630
O          O       0.26170   0.77130   0.46280
O          O       0.20790   0.64910   0.44920
O          O       0.72210   0.94520   0.53150
O          O       0.68090   0.97840   0.44560
O          O       0.35170   0.59440   0.26460
O          O       0.38710   0.69960   0.25740
O          O       0.42410   0.68300   0.17580
O          O       0.35820   0.68240   0.33710
O          O       0.42820   0.57980   0.33680
C          C       0.03050   0.32630   0.13980
C          C       0.95600   0.29870   0.14460
C          C       0.95170   0.22060   0.14160
C          C       0.90970   0.37400   0.19330
C          C       0.91780   0.43210   0.16900
C          C       0.88780   0.49050   0.18050
C          C       0.85160   0.49300   0.21700
C          C       0.84500   0.43630   0.24270
C          C       0.87700   0.38040   0.23150
C          C       0.88850   0.55370   0.15330
C          C       0.80650   0.43640   0.28180
C          C       0.36910   0.64930   0.24010
C          C       0.37230   0.64040   0.19470
C          C       0.30000   0.66100   0.17440
C          C       0.49370   0.66260   0.18910
C          C       0.51010   0.61030   0.21520
C          C       0.58060   0.59250   0.22820
C          C       0.63230   0.63760   0.21260
C          C       0.61570   0.69210   0.18650
C          C       0.54540   0.70250   0.17520
C          C       0.59890   0.53560   0.25990
C          C       0.67200   0.73350   0.17270
C          C       0.66240   0.93340   0.51730
C          C       0.62910   0.96530   0.47580
C          C       0.71660   0.92390   0.42690
C          C       0.70780   0.86290   0.44080
C          C       0.74770   0.80880   0.42200
C          C       0.79110   0.82500   0.39010
C          C       0.79620   0.89090   0.37810
C          C       0.75700   0.93610   0.39670
C          C       0.74120   0.73390   0.43620
C          C       0.83800   0.91050   0.34100
C          C       0.29050   0.73960   0.43670
C          C       0.27020   0.66770   0.43100
C          C       0.32510   0.62170   0.45460
C          C       0.14180   0.66430   0.42860
C          C       0.08660   0.63830   0.44290
C          C       0.02040   0.64970   0.42320
C          C       0.01380   0.69460   0.38920
C          C       0.07340   0.72190   0.37410
C          C       0.13930   0.70560   0.39370
C          C       0.95620   0.61750   0.44080
C          C       0.06580   0.77140   0.33410
C          C       0.81380   0.55960   0.23070
C          C       0.74650   0.57310   0.21450
C          C       0.70960   0.62390   0.23120
C          C       0.73740   0.66510   0.26460
C          C       0.69920   0.71340   0.28480
C          C       0.72740   0.74950   0.31700
C          C       0.80000   0.73740   0.33470
C          C       0.83080   0.77370   0.37130
C          C       0.89940   0.75870   0.38550
C          C       0.94120   0.70730   0.36800
C          C       0.91210   0.67370   0.33340
C          C       0.94830   0.62220   0.31440
C          C       0.91920   0.58560   0.28160
C          C       0.84650   0.59790   0.26450
C          C       0.80900   0.64670   0.28040
C          C       0.84050   0.68880   0.31640
C          C       0.60240   0.03890   0.48420
N          N       0.65570   0.36700   0.96300
C          C       0.63470   0.39890   1.00130
C          C       0.58610   0.36460   0.93480
N          N       0.34430   0.36690   0.03700
C          C       0.36540   0.39890  -0.00130
C          C       0.41400   0.36460   0.06520
H          H       0.57860   0.81920   0.37640
H          H       0.59610   0.70640   0.35570
H          H       0.51730   0.70100   0.33620
H          H       0.53440   0.70630   0.38530
H          H       0.55680   0.93060   0.35460
H          H       0.62220   0.84370   0.25040
H          H       0.65880   0.06340   0.35860
H          H       0.58160   0.04660   0.36910
H          H       0.59390   0.09080   0.32950
H          H       0.69010   0.89270   0.20540
H          H       0.74240   0.94730   0.22550
H          H       0.67260   0.96910   0.19860
H          H       0.11900   0.09310   0.31150
H          H       0.23350   0.12560   0.32220
H          H       0.19730   0.16930   0.35520
H          H       0.21520   0.20110   0.31230
H          H       0.02650   0.08500   0.27520
H          H       0.96800   0.23810   0.34280
H          H       0.85090   0.02900   0.23690
H          H       0.92410   0.99500   0.25040
H          H       0.91740   0.04720   0.21330
H          H       0.84590   0.26000   0.35120
H          H       0.79030   0.20530   0.33510
H          H       0.81040   0.26260   0.30460
H          H       0.90980   0.43750   0.03710
H          H       0.82230   0.35420   0.03830
H          H       0.74130   0.48020   0.11280
H          H       0.75130   0.20480   0.08710
H          H       0.80540   0.22630   0.05510
H          H       0.72410   0.22480   0.04070
H          H       0.66880   0.45750   0.16500
H          H       0.67860   0.38470   0.18350
H          H       0.61270   0.40180   0.15180
H          H       0.23450   0.15650   0.09920
H          H       0.12880   0.13210   0.05370
H          H       0.18630   0.07570   0.05220
H          H       0.17550   0.12830   0.01550
H          H       0.40840   0.11140   0.03300
H          H       0.31960   0.22210   0.11620
H          H       0.57600   0.10150   0.08220
H          H       0.56740   0.15020   0.04330
H          H       0.52870   0.08060   0.04120
H          H       0.40130   0.30780   0.16130
H          H       0.48170   0.28900   0.16950
H          H       0.42460   0.24720   0.19090
H          H       0.77440   0.04780   0.30790
H          H       0.84810   0.22050   0.22490
H          H       0.79940   0.28290   0.17160
H          H       0.57960   0.28350   0.09190
H          H       0.50550   0.11280   0.17510
H          H       0.55440   0.05240   0.23020
H          H       0.22350   0.00530   0.33450
H          H       0.26330   0.94100   0.27850
H          H       0.18470   0.96030   0.26370
H          H       0.20260   0.88830   0.28150
H          H       0.20340   0.00950   0.39910
H          H       0.00380   0.98240   0.34800
H          H       0.00010   0.02540   0.50000
H          H       0.90820   0.04800   0.36940
H          H       0.92440   0.10230   0.40470
H          H       0.90980   0.02770   0.41720
H          H       0.15740   0.10750   0.48890
H          H       0.21310   0.11560   0.45570
H          H       0.20990   0.04880   0.48160
H          H       0.06370   0.30210   0.40870
H          H       0.06490   0.19170   0.40830
H          H       0.00010   0.46740   0.50000
H          H       0.98480   0.46030   0.32990
H          H       0.16780   0.51500   0.39060
H          H       0.20450   0.48010   0.46590
H          H       0.17180   0.41000   0.47530
H          H       0.13950   0.47560   0.49290
H          H       0.88950   0.42820   0.37640
H          H       0.91170   0.40060   0.42190
H          H       0.92550   0.35750   0.38210
H          H       0.90250   0.54440   0.98610
H          H       0.94270   0.54610   0.03150
H          H       0.86410   0.57080   0.02450
H          H       0.13380   0.57560   0.25490
H          H       0.19790   0.61970   0.27320
H          H       0.12020   0.64360   0.27770
H          H       0.14940   0.60200   0.34150
H          H       0.77650   0.00530   0.66550
H          H       0.73680   0.94100   0.72150
H          H       0.81540   0.96030   0.73630
H          H       0.79750   0.88830   0.71850
H          H       0.79670   0.00950   0.60090
H          H       0.99630   0.98240   0.65200
H          H       0.09190   0.04800   0.63060
H          H       0.07570   0.10230   0.59530
H          H       0.09020   0.02770   0.58280
H          H       0.84280   0.10750   0.51110
H          H       0.78690   0.11560   0.54430
H          H       0.79020   0.04880   0.51840
H          H       0.93630   0.30210   0.59130
H          H       0.93520   0.19170   0.59170
H          H       0.01530   0.46030   0.67010
H          H       0.83240   0.51500   0.60940
H          H       0.79550   0.48010   0.53410
H          H       0.82840   0.41000   0.52470
H          H       0.86070   0.47560   0.50710
H          H       0.11050   0.42820   0.62360
H          H       0.08830   0.40060   0.57810
H          H       0.07470   0.35750   0.61790
H          H       0.86630   0.57560   0.74510
H          H       0.80220   0.61970   0.72680
H          H       0.87990   0.64360   0.72230
H          H       0.85060   0.60200   0.65850
H          H       0.42150   0.81920   0.62360
H          H       0.40400   0.70640   0.64430
H          H       0.48280   0.70100   0.66380
H          H       0.46570   0.70630   0.61470
H          H       0.44330   0.93060   0.64540
H          H       0.37790   0.84370   0.74960
H          H       0.34130   0.06340   0.64140
H          H       0.41850   0.04660   0.63090
H          H       0.40620   0.09080   0.67050
H          H       0.31000   0.89270   0.79460
H          H       0.25770   0.94730   0.77450
H          H       0.32750   0.96910   0.80140
H          H       0.88110   0.09310   0.68850
H          H       0.76660   0.12560   0.67780
H          H       0.80280   0.16930   0.64480
H          H       0.78490   0.20110   0.68770
H          H       0.97360   0.08500   0.72480
H          H       0.03210   0.23810   0.65720
H          H       0.14920   0.02900   0.76310
H          H       0.07600   0.99500   0.74960
H          H       0.08270   0.04720   0.78670
H          H       0.15420   0.26000   0.64880
H          H       0.20980   0.20530   0.66490
H          H       0.18970   0.26260   0.69540
H          H       0.09030   0.43750   0.96290
H          H       0.17780   0.35420   0.96170
H          H       0.25880   0.48020   0.88720
H          H       0.24880   0.20480   0.91290
H          H       0.19470   0.22630   0.94490
H          H       0.27600   0.22480   0.95930
H          H       0.33130   0.45750   0.83500
H          H       0.32150   0.38470   0.81650
H          H       0.38740   0.40180   0.84820
H          H       0.76560   0.15650   0.90080
H          H       0.87130   0.13210   0.94630
H          H       0.81380   0.07570   0.94780
H          H       0.82460   0.12830   0.98450
H          H       0.59170   0.11140   0.96700
H          H       0.68050   0.22210   0.88380
H          H       0.42410   0.10150   0.91780
H          H       0.43270   0.15020   0.95670
H          H       0.47140   0.08060   0.95880
H          H       0.59880   0.30780   0.83870
H          H       0.51840   0.28900   0.83050
H          H       0.57550   0.24720   0.80910
H          H       0.22570   0.04780   0.69210
H          H       0.15200   0.22050   0.77510
H          H       0.20070   0.28290   0.82840
H          H       0.42050   0.28350   0.90810
H          H       0.49460   0.11280   0.82490
H          H       0.44570   0.05240   0.76980
H          H       0.09760   0.54440   0.01390
H          H       0.05740   0.54610   0.96850
H          H       0.13600   0.57080   0.97550
H          H       0.17230   0.82580   0.46840
H          H       0.18810   0.89090   0.45100
H          H       0.14640   0.87010   0.52510
H          H       0.08450   0.90680   0.49830
H          H       0.15920   0.94090   0.50570
H          H       0.09550   0.85480   0.40620
H          H       0.06260   0.90730   0.43560
H          H       0.05620   0.83030   0.44470
H          H       0.82770   0.82580   0.53160
H          H       0.81190   0.89090   0.54900
H          H       0.85360   0.87010   0.47490
H          H       0.91550   0.90680   0.50170
H          H       0.84090   0.94090   0.49430
H          H       0.90450   0.85480   0.59380
H          H       0.93740   0.90730   0.56440
H          H       0.94390   0.83030   0.55530
H          H       0.07860   0.31920   0.87640
H          H       0.09610   0.20640   0.85570
H          H       0.01730   0.20100   0.83620
H          H       0.03440   0.20630   0.88530
H          H       0.05680   0.43060   0.85460
H          H       0.12220   0.34370   0.75040
H          H       0.15880   0.56340   0.85860
H          H       0.08160   0.54660   0.86910
H          H       0.09390   0.59080   0.82950
H          H       0.19010   0.39270   0.70540
H          H       0.24240   0.44730   0.72550
H          H       0.17260   0.46920   0.69860
H          H       0.61900   0.59310   0.81150
H          H       0.73350   0.62560   0.82220
H          H       0.69730   0.66930   0.85520
H          H       0.71520   0.70110   0.81230
H          H       0.52650   0.58500   0.77520
H          H       0.46800   0.73810   0.84280
H          H       0.35090   0.52900   0.73690
H          H       0.42410   0.49500   0.75040
H          H       0.41740   0.54720   0.71330
H          H       0.34590   0.76000   0.85120
H          H       0.29030   0.70530   0.83510
H          H       0.31040   0.76260   0.80460
H          H       0.40980   0.93750   0.53710
H          H       0.32230   0.85420   0.53830
H          H       0.24130   0.98020   0.61280
H          H       0.25130   0.70480   0.58710
H          H       0.30540   0.72630   0.55510
H          H       0.22410   0.72480   0.54070
H          H       0.16880   0.95750   0.66500
H          H       0.17860   0.88470   0.68350
H          H       0.11270   0.90180   0.65180
H          H       0.73450   0.65650   0.59920
H          H       0.62880   0.63210   0.55370
H          H       0.68630   0.57570   0.55220
H          H       0.67550   0.62830   0.51550
H          H       0.90840   0.61140   0.53300
H          H       0.81960   0.72210   0.61620
H          H       0.07600   0.60150   0.58220
H          H       0.06740   0.65020   0.54330
H          H       0.02870   0.58060   0.54120
H          H       0.90130   0.80780   0.66130
H          H       0.98170   0.78900   0.66950
H          H       0.92460   0.74720   0.69090
H          H       0.27440   0.54780   0.80790
H          H       0.34810   0.72050   0.72490
H          H       0.29940   0.78290   0.67160
H          H       0.07960   0.78350   0.59190
H          H       0.00550   0.61280   0.67510
H          H       0.05440   0.55240   0.73020
H          H       0.72350   0.50530   0.83450
H          H       0.76330   0.44100   0.77850
H          H       0.68470   0.46030   0.76370
H          H       0.70270   0.38830   0.78150
H          H       0.70340   0.50950   0.89910
H          H       0.50380   0.48240   0.84800
H          H       0.50010   0.52540   0.00000
H          H       0.40820   0.54800   0.86940
H          H       0.42440   0.60230   0.90470
H          H       0.40980   0.52770   0.91720
H          H       0.65740   0.60750   0.98890
H          H       0.71310   0.61560   0.95570
H          H       0.71000   0.54880   0.98160
H          H       0.56370   0.80210   0.90870
H          H       0.56490   0.69170   0.90830
H          H       0.50010   0.96740   0.00000
H          H       0.48480   0.96030   0.82990
H          H       0.66780   0.01500   0.89060
H          H       0.70450   0.98010   0.96590
H          H       0.67180   0.91000   0.97530
H          H       0.63950   0.97560   0.99290
H          H       0.38950   0.92820   0.87640
H          H       0.41170   0.90060   0.92190
H          H       0.42550   0.85750   0.88210
H          H       0.40250   0.04440   0.48610
H          H       0.44270   0.04610   0.53150
H          H       0.36410   0.07080   0.52450
H          H       0.63380   0.07560   0.75490
H          H       0.69790   0.11970   0.77320
H          H       0.62020   0.14360   0.77770
H          H       0.64940   0.10200   0.84150
H          H       0.27650   0.50530   0.16550
H          H       0.23680   0.44100   0.22150
H          H       0.31530   0.46030   0.23630
H          H       0.29750   0.38830   0.21850
H          H       0.29670   0.50950   0.10090
H          H       0.49620   0.48240   0.15200
H          H       0.59180   0.54800   0.13060
H          H       0.57560   0.60230   0.09530
H          H       0.59020   0.52770   0.08280
H          H       0.34280   0.60750   0.01110
H          H       0.28690   0.61560   0.04430
H          H       0.29020   0.54880   0.01840
H          H       0.43630   0.80210   0.09130
H          H       0.43520   0.69170   0.09170
H          H       0.51530   0.96030   0.17010
H          H       0.33240   0.01500   0.10940
H          H       0.29550   0.98010   0.03410
H          H       0.32840   0.91000   0.02470
H          H       0.36060   0.97560   0.00710
H          H       0.61050   0.92820   0.12360
H          H       0.58830   0.90060   0.07810
H          H       0.57470   0.85750   0.11790
H          H       0.36630   0.07560   0.24510
H          H       0.30220   0.11970   0.22680
H          H       0.37990   0.14360   0.22230
H          H       0.35060   0.10200   0.15850
H          H       0.92150   0.31920   0.12360
H          H       0.90400   0.20640   0.14430
H          H       0.98280   0.20100   0.16380
H          H       0.96570   0.20630   0.11470
H          H       0.94320   0.43060   0.14540
H          H       0.87790   0.34370   0.24960
H          H       0.84120   0.56340   0.14140
H          H       0.91840   0.54660   0.13090
H          H       0.90620   0.59080   0.17050
H          H       0.81000   0.39270   0.29460
H          H       0.75770   0.44730   0.27450
H          H       0.82750   0.46910   0.30140
H          H       0.38110   0.59310   0.18850
H          H       0.26660   0.62560   0.17780
H          H       0.30280   0.66930   0.14480
H          H       0.28490   0.70110   0.18770
H          H       0.47360   0.58500   0.22480
H          H       0.53210   0.73810   0.15720
H          H       0.64920   0.52900   0.26310
H          H       0.57600   0.49500   0.24960
H          H       0.58270   0.54720   0.28670
H          H       0.65420   0.76000   0.14880
H          H       0.70970   0.70530   0.16490
H          H       0.68970   0.76260   0.19540
H          H       0.59030   0.93740   0.46290
H          H       0.67780   0.85420   0.46170
H          H       0.75880   0.98020   0.38720
H          H       0.74880   0.70480   0.41290
H          H       0.69470   0.72630   0.44490
H          H       0.77600   0.72480   0.45930
H          H       0.83130   0.95750   0.33500
H          H       0.82150   0.88470   0.31650
H          H       0.88740   0.90180   0.34820
H          H       0.26560   0.65650   0.40080
H          H       0.37130   0.63210   0.44630
H          H       0.31380   0.57570   0.44780
H          H       0.32460   0.62830   0.48450
H          H       0.09170   0.61140   0.46700
H          H       0.18050   0.72210   0.38380
H          H       0.92410   0.60150   0.41780
H          H       0.93270   0.65020   0.45670
H          H       0.97140   0.58060   0.45880
H          H       0.09880   0.80780   0.33870
H          H       0.01840   0.78900   0.33050
H          H       0.07550   0.74720   0.30910
H          H       0.72560   0.54780   0.19210
H          H       0.65200   0.72050   0.27510
H          H       0.70070   0.78290   0.32840
H          H       0.92050   0.78350   0.40810
H          H       0.99460   0.61280   0.32490
H          H       0.94570   0.55240   0.26980
H          H       0.59760   0.04440   0.51390
H          H       0.55740   0.04610   0.46850
H          H       0.63600   0.07080   0.47550
H          H       0.67230   0.32580   0.96840
H          H       0.68810   0.39090   0.95100
H          H       0.64640   0.37000   1.02510
H          H       0.58450   0.40680   0.99830
H          H       0.65920   0.44090   1.00570
H          H       0.59550   0.35480   0.90620
H          H       0.56260   0.40730   0.93560
H          H       0.55620   0.33030   0.94470
H          H       0.36090   0.69010   0.37150
H          H       0.32770   0.32580   0.03160
H          H       0.31190   0.39080   0.04900
H          H       0.35360   0.37000  -0.02510
H          H       0.41550   0.40680   0.00170
H          H       0.34090   0.44080  -0.00570
H          H       0.40450   0.35470   0.09380
H          H       0.43740   0.40720   0.06440
H          H       0.44380   0.33020   0.05530
H          H       0.54110   0.61050   0.68370
H          H       0.45900   0.61050   0.31630
H          H       0.44060   0.59520   0.36990
H          H       0.04100   0.11130   0.18330
H          H       0.63910   0.69010   0.62850
H          H       0.55940   0.59520   0.63010
H          H       0.95900   0.11130   0.81670
H          H       0.40390   0.70540   0.32380
H          H       0.86090   0.19010   0.87150
H          H       0.94060   0.09520   0.86990
H          H       0.13910   0.19010   0.12850
H          H       0.05940   0.09520   0.13010
