data_crystal

_cell_length_a    33.15200
_cell_length_b    14.43020
_cell_length_c    14.07990
_cell_angle_alpha 90.00000
_cell_angle_beta  90.00000
_cell_angle_gamma 90.00000

_symmetry_space_group_name_Hall 'P 1'
_symmetry_space_group_name_H-M  'P 1'

loop_
_symmetry_equiv_pos_as_xyz
 'x,y,z'

loop_
_atom_site_label
_atom_site_type_symbol
_atom_site_fract_x
_atom_site_fract_y
_atom_site_fract_z
H          H       0.41230   0.65590   0.95680
H          H       0.41230   0.77260   0.95680
H          H       0.43040   0.64900   0.60170
H          H       0.43040   0.76570   0.60170
H          H       0.31900   0.27920   0.66640
H          H       0.32200   0.15520   0.65840
Co         Co      0.09930   0.70730   0.47120
Co         Co      0.22090   0.20730   0.94740
Co         Co      0.05450   0.70730   0.24320
Co         Co      0.41530   0.70730   0.78050
O          O       0.16640   0.20730   0.88570
O          O       0.05700   0.70730   0.09590
O          O       0.14030   0.10460   0.06020
O          O       0.51020   0.80980   0.89700
O          O       0.12700   0.80670   0.38840
O          O       0.46860   0.80150   0.77250
C          C       0.30280   0.94890   0.28420
O          O       0.09770   0.81030   0.24450
C          C       0.18130   0.01370   0.16240
C          C       0.30590   0.93570   0.18390
H          H       0.28210   0.92560   0.14790
C          C       0.37850   0.95310   0.18940
C          C       0.15700   0.89760   0.26820
C          C       0.21900   0.00910   0.20530
H          H       0.24040   0.04680   0.18230
C          C       0.47970   0.83260   0.85190
C          C       0.19440   0.89600   0.31330
H          H       0.19850   0.85680   0.36660
C          C       0.45140   0.90170   0.89640
C          C       0.22550   0.95060   0.28120
O          O       0.20730   0.10820   0.04200
C          C       0.26490   0.94980   0.33200
C          C       0.33900   0.95610   0.33840
C          C       0.17560   0.08140   0.08120
C          C       0.45120   0.96290   0.19690
H          H       0.47640   0.96380   0.16460
O          O       0.34210   0.11120   0.86950
C          C       0.15040   0.95650   0.19300
H          H       0.12480   0.95810   0.16240
C          C       0.41630   0.95940   0.14330
C          C       0.12400   0.83220   0.30290
C          C       0.34180   0.93740   0.13890
H          H       0.34270   0.92780   0.07220
C          C       0.44850   0.90370   0.99470
H          H       0.46590   0.86720   0.03320
C          C       0.41990   0.95990   0.03390
C          C       0.39940   0.01660   0.88440
O          O       0.15090   0.70730   0.55530
C          C       0.39590   0.01680   0.98220
H          H       0.37690   0.05630   0.01270
C          C       0.37240   0.07750   0.82780
O          O       0.38120   0.09060   0.74160
C          C       0.42700   0.95700   0.84130
H          H       0.42890   0.95450   0.77410
N          N       0.20670   0.70730   0.64480
C          C       0.17340   0.74500   0.61050
N          N       0.05150   0.70730   0.93790
C          C       0.23380   0.75240   0.71090
C          C       0.21860   0.61430   0.61490
O          O       0.43240   0.70730   0.63050
C          C       0.05570   0.66420   0.02140
C          C       0.04950   0.66940   0.84400
C          C       0.04910   0.81020   0.94500
O          O       0.57590   0.81020   0.56760
O          O       0.20600   0.10500   0.73080
O          O       0.58920   0.10800   0.23940
O          O       0.24760   0.11320   0.85530
C          C       0.41340   0.96580   0.34380
O          O       0.61850   0.10440   0.38340
C          C       0.53490   0.90100   0.46560
C          C       0.41020   0.97910   0.44400
H          H       0.43410   0.98920   0.48000
C          C       0.33770   0.96170   0.43840
C          C       0.55920   0.01720   0.35970
C          C       0.49720   0.90550   0.42250
H          H       0.47580   0.86800   0.44550
C          C       0.23650   0.08220   0.77610
C          C       0.52170   0.01880   0.31460
H          H       0.51770   0.05790   0.26120
C          C       0.26480   0.01300   0.73150
C          C       0.49070   0.96420   0.34670
O          O       0.50890   0.80660   0.58590
C          C       0.45130   0.96490   0.29600
C          C       0.37710   0.95860   0.28940
C          C       0.54050   0.83330   0.54670
C          C       0.26500   0.95180   0.43100
H          H       0.23980   0.95090   0.46320
O          O       0.37400   0.80350   0.75850
C          C       0.56580   0.95810   0.43500
H          H       0.59140   0.95670   0.46560
C          C       0.29980   0.95540   0.48450
C          C       0.59220   0.08250   0.32490
C          C       0.37440   0.97730   0.48910
H          H       0.37350   0.98700   0.55580
C          C       0.26770   0.01110   0.63320
H          H       0.25030   0.04750   0.59470
C          C       0.29630   0.95490   0.59400
C          C       0.31680   0.89810   0.74350
C          C       0.32030   0.89790   0.64570
H          H       0.33930   0.85850   0.61510
C          C       0.34380   0.83710   0.80010
O          O       0.33500   0.82400   0.88640
C          C       0.28920   0.95770   0.78660
H          H       0.28730   0.96030   0.85380
Co         Co      0.11690   0.20730   0.97120
Co         Co      0.59930   0.70730   0.65650
Co         Co      0.61690   0.20730   0.15650
Co         Co      0.49530   0.70730   0.68050
Co         Co      0.16170   0.20730   0.74310
Co         Co      0.55450   0.70730   0.88470
Co         Co      0.66170   0.20730   0.38470
Co         Co      0.30090   0.20730   0.84740
O          O       0.04980   0.70730   0.38570
O          O       0.07590   0.81020   0.56020
O          O       0.07590   0.60460   0.56020
O          O       0.01020   0.60490   0.23080
O          O       0.01020   0.80980   0.23080
O          O       0.12700   0.60800   0.38840
O          O       0.24760   0.30140   0.85530
O          O       0.46860   0.61320   0.77250
O          O       0.09770   0.60440   0.24450
O          O       0.20730   0.30660   0.04200
O          O       0.37400   0.61120   0.75850
O          O       0.28380   0.20730   0.99740
Co         Co      0.33500   0.70730   0.96170
O          O       0.37970   0.70730   0.05570
O          O       0.28900   0.70730   0.04210
C          C       0.18110   0.70730   0.08890
N          N       0.22510   0.70730   0.09890
C          C       0.24310   0.70730   0.19500
C          C       0.25240   0.70730   0.02900
O          O       0.39950   0.70730   0.92240
Co         Co      0.99530   0.70730   0.44740
Co         Co      0.80090   0.20730   0.28050
O          O       0.15920   0.20730   0.59580
O          O       0.70600   0.10500   0.39700
O          O       0.08920   0.10800   0.88840
O          O       0.74760   0.11320   0.27250
C          C       0.91340   0.96580   0.78420
O          O       0.11850   0.10440   0.74450
C          C       0.03490   0.90100   0.66240
C          C       0.91020   0.97910   0.68390
H          H       0.93410   0.98920   0.64800
C          C       0.83770   0.96170   0.68940
C          C       0.05920   0.01720   0.76810
C          C       0.99720   0.90550   0.70530
H          H       0.97580   0.86800   0.68230
C          C       0.73650   0.08220   0.35190
C          C       0.02170   0.01880   0.81330
H          H       0.01770   0.05790   0.86660
C          C       0.76480   0.01300   0.39640
C          C       0.99070   0.96420   0.78110
O          O       0.00890   0.80660   0.54200
C          C       0.95130   0.96490   0.83200
C          C       0.87710   0.95860   0.83840
C          C       0.04050   0.83330   0.58120
C          C       0.76500   0.95180   0.69690
H          H       0.73980   0.95090   0.66460
O          O       0.87400   0.80350   0.36950
C          C       0.06580   0.95810   0.69300
H          H       0.09140   0.95670   0.66240
C          C       0.79980   0.95540   0.64330
C          C       0.09220   0.08250   0.80300
C          C       0.87440   0.97730   0.63890
H          H       0.87350   0.98700   0.57220
C          C       0.76770   0.01110   0.49470
H          H       0.75030   0.04750   0.53320
C          C       0.79630   0.95490   0.53390
C          C       0.81680   0.89810   0.38440
O          O       0.06530   0.20730   0.05530
C          C       0.82030   0.89790   0.48230
H          H       0.83930   0.85850   0.51270
C          C       0.84380   0.83710   0.32780
O          O       0.83500   0.82400   0.24160
C          C       0.78920   0.95770   0.34130
H          H       0.78730   0.96030   0.27410
N          N       0.00950   0.20730   0.14480
N          N       0.16470   0.20730   0.43790
O          O       0.78380   0.20730   0.13050
C          C       0.16050   0.25040   0.52140
C          C       0.16670   0.24540   0.34400
C          C       0.16710   0.10460   0.44500
O          O       0.64030   0.10460   0.06760
O          O       0.62700   0.80670   0.73940
O          O       0.96860   0.80150   0.35530
C          C       0.80280   0.94890   0.84380
O          O       0.59770   0.81030   0.88340
C          C       0.68130   0.01370   0.96560
C          C       0.80590   0.93570   0.94400
H          H       0.78210   0.92560   0.98000
C          C       0.87850   0.95310   0.93840
C          C       0.65700   0.89760   0.85970
C          C       0.71900   0.00910   0.92250
H          H       0.74040   0.04680   0.94550
C          C       0.97970   0.83260   0.27610
C          C       0.69440   0.89600   0.81460
H          H       0.69850   0.85680   0.76120
C          C       0.95140   0.90170   0.23150
C          C       0.72550   0.95060   0.84670
O          O       0.70730   0.10820   0.08590
C          C       0.76490   0.94980   0.79600
C          C       0.83900   0.95610   0.78940
C          C       0.67560   0.08140   0.04670
C          C       0.95120   0.96290   0.93100
H          H       0.97640   0.96380   0.96330
O          O       0.84210   0.11120   0.25850
C          C       0.65040   0.95650   0.93490
H          H       0.62480   0.95810   0.96560
C          C       0.91630   0.95940   0.98450
C          C       0.62400   0.83220   0.82490
C          C       0.84180   0.93740   0.98910
H          H       0.84270   0.92780   0.05580
C          C       0.94850   0.90370   0.13320
H          H       0.96590   0.86720   0.09470
C          C       0.91990   0.95990   0.09400
C          C       0.89940   0.01660   0.24350
C          C       0.89590   0.01680   0.14570
H          H       0.87690   0.05630   0.11510
C          C       0.87240   0.07750   0.30010
O          O       0.88120   0.09060   0.38640
C          C       0.92700   0.95700   0.28660
H          H       0.92890   0.95450   0.35380
C          C       0.04280   0.24500   0.11060
C          C       0.98240   0.25240   0.21090
C          C       0.99760   0.11430   0.11490
Co         Co      0.72090   0.20730   0.18050
Co         Co      0.91530   0.70730   0.34740
O          O       0.14030   0.31020   0.06020
O          O       0.20600   0.30980   0.73080
O          O       0.08920   0.30660   0.88840
O          O       0.96860   0.61320   0.35530
O          O       0.74760   0.30140   0.27250
O          O       0.11850   0.31040   0.74450
O          O       0.00890   0.60820   0.54200
O          O       0.84210   0.30350   0.25850
O          O       0.93240   0.70730   0.49740
Co         Co      0.88120   0.20730   0.46170
O          O       0.83650   0.20730   0.55560
O          O       0.92720   0.20730   0.54210
C          C       0.03510   0.20730   0.58890
N          N       0.99110   0.20730   0.59890
C          C       0.97310   0.20730   0.69500
C          C       0.96380   0.20730   0.52900
O          O       0.81970   0.20730   0.42240
O          O       0.66640   0.20730   0.24210
O          O       0.55700   0.70730   0.03200
O          O       0.64030   0.31020   0.06760
O          O       0.62700   0.60800   0.73940
C          C       0.80280   0.46580   0.84380
O          O       0.59770   0.60440   0.88340
C          C       0.68130   0.40100   0.96560
C          C       0.80590   0.47910   0.94400
H          H       0.78210   0.48910   0.98000
C          C       0.87850   0.46170   0.93840
C          C       0.65700   0.51720   0.85970
C          C       0.71900   0.40560   0.92250
H          H       0.74040   0.36800   0.94550
C          C       0.97970   0.58210   0.27610
C          C       0.69440   0.51880   0.81460
H          H       0.69850   0.55790   0.76120
C          C       0.95140   0.51300   0.23150
C          C       0.72550   0.46420   0.84670
O          O       0.70730   0.30660   0.08590
C          C       0.76490   0.46490   0.79600
C          C       0.83900   0.45860   0.78940
C          C       0.67560   0.33330   0.04670
C          C       0.95120   0.45180   0.93100
H          H       0.97640   0.45090   0.96330
C          C       0.65040   0.45810   0.93490
H          H       0.62480   0.45660   0.96560
C          C       0.91630   0.45540   0.98450
C          C       0.62400   0.58250   0.82490
C          C       0.84180   0.47730   0.98910
H          H       0.84270   0.48700   0.05580
C          C       0.94850   0.51100   0.13320
H          H       0.96590   0.54750   0.09470
C          C       0.91990   0.45490   0.09400
C          C       0.89940   0.39810   0.24350
O          O       0.65090   0.70730   0.57270
C          C       0.89590   0.39790   0.14570
H          H       0.87690   0.35840   0.11510
C          C       0.87240   0.33720   0.30010
O          O       0.88120   0.32410   0.38640
C          C       0.92700   0.45770   0.28660
H          H       0.92890   0.46020   0.35380
N          N       0.70670   0.70730   0.48320
N          N       0.55150   0.70730   0.18990
C          C       0.55570   0.75050   0.10650
C          C       0.54950   0.74530   0.28400
C          C       0.54910   0.60460   0.18300
O          O       0.70600   0.30980   0.39700
C          C       0.91340   0.44890   0.78420
C          C       0.03490   0.51370   0.66240
C          C       0.91020   0.43560   0.68390
H          H       0.93410   0.42560   0.64800
C          C       0.83770   0.45310   0.68940
C          C       0.05920   0.39760   0.76810
C          C       0.99720   0.50920   0.70530
H          H       0.97580   0.54680   0.68230
C          C       0.73650   0.33260   0.35190
C          C       0.02170   0.39600   0.81330
H          H       0.01770   0.35680   0.86660
C          C       0.76480   0.40170   0.39640
C          C       0.99070   0.45050   0.78110
C          C       0.95130   0.44980   0.83200
C          C       0.87710   0.45610   0.83840
C          C       0.04050   0.58140   0.58120
C          C       0.76500   0.46290   0.69690
H          H       0.73980   0.46380   0.66460
O          O       0.87400   0.61120   0.36950
C          C       0.06580   0.45660   0.69300
H          H       0.09140   0.45810   0.66240
C          C       0.79980   0.45930   0.64330
C          C       0.09220   0.33220   0.80300
C          C       0.87440   0.43740   0.63890
H          H       0.87350   0.42770   0.57220
C          C       0.76770   0.40370   0.49470
H          H       0.75030   0.36720   0.53320
C          C       0.79630   0.45990   0.53390
C          C       0.81680   0.51660   0.38440
C          C       0.82030   0.51680   0.48230
H          H       0.83930   0.55630   0.51270
C          C       0.84380   0.57760   0.32780
O          O       0.83500   0.59060   0.24160
C          C       0.78920   0.45700   0.34130
H          H       0.78730   0.45450   0.27410
C          C       0.67340   0.74500   0.51730
C          C       0.73380   0.75240   0.41700
C          C       0.71860   0.61430   0.51290
O          O       0.54980   0.70730   0.74210
O          O       0.57590   0.60460   0.56760
O          O       0.51020   0.60490   0.89700
Co         Co      0.83500   0.70730   0.16630
O          O       0.87970   0.70730   0.07220
O          O       0.78900   0.70730   0.08590
C          C       0.68110   0.70730   0.03890
N          N       0.72510   0.70730   0.02900
C          C       0.74310   0.70730   0.93300
C          C       0.75240   0.70730   0.09890
O          O       0.89950   0.70730   0.20550
O          O       0.65920   0.20730   0.53200
O          O       0.58920   0.30660   0.23940
C          C       0.41340   0.44890   0.34380
O          O       0.61850   0.31040   0.38340
C          C       0.53490   0.51370   0.46560
C          C       0.41020   0.43560   0.44400
H          H       0.43410   0.42560   0.48000
C          C       0.33770   0.45310   0.43840
C          C       0.55920   0.39760   0.35970
C          C       0.49720   0.50920   0.42250
H          H       0.47580   0.54680   0.44550
C          C       0.23650   0.33260   0.77610
C          C       0.52170   0.39600   0.31460
H          H       0.51770   0.35680   0.26120
C          C       0.26480   0.40170   0.73150
C          C       0.49070   0.45050   0.34670
O          O       0.50890   0.60820   0.58590
C          C       0.45130   0.44980   0.29600
C          C       0.37710   0.45610   0.28940
C          C       0.54050   0.58140   0.54670
C          C       0.26500   0.46290   0.43100
H          H       0.23980   0.46380   0.46320
C          C       0.56580   0.45660   0.43500
H          H       0.59140   0.45810   0.46560
C          C       0.29980   0.45930   0.48450
C          C       0.59220   0.33220   0.32490
C          C       0.37440   0.43740   0.48910
H          H       0.37350   0.42770   0.55580
C          C       0.26770   0.40370   0.63320
H          H       0.25030   0.36720   0.59470
C          C       0.29630   0.45990   0.59400
C          C       0.31680   0.51660   0.74350
O          O       0.56530   0.20730   0.07270
C          C       0.32030   0.51680   0.64570
H          H       0.33930   0.55630   0.61510
C          C       0.34380   0.57760   0.80010
O          O       0.33500   0.59060   0.88640
C          C       0.28920   0.45700   0.78660
H          H       0.28730   0.45450   0.85380
N          N       0.50950   0.20730   0.98320
C          C       0.54280   0.24500   0.01730
C          C       0.66050   0.25040   0.60650
N          N       0.66470   0.20730   0.68990
C          C       0.66670   0.24540   0.78400
C          C       0.66710   0.10460   0.68300
C          C       0.48240   0.25240   0.91700
C          C       0.49760   0.11430   0.01290
C          C       0.30280   0.46580   0.28420
C          C       0.18130   0.40100   0.16240
C          C       0.30590   0.47910   0.18390
H          H       0.28210   0.48910   0.14790
C          C       0.37850   0.46170   0.18940
C          C       0.15700   0.51720   0.26820
C          C       0.21900   0.40560   0.20530
H          H       0.24040   0.36800   0.18230
C          C       0.47970   0.58210   0.85190
C          C       0.19440   0.51880   0.31330
H          H       0.19850   0.55790   0.36660
C          C       0.45140   0.51300   0.89640
C          C       0.22550   0.46420   0.28120
C          C       0.26490   0.46490   0.33200
C          C       0.33900   0.45860   0.33840
C          C       0.17560   0.33330   0.08120
C          C       0.45120   0.45180   0.19690
H          H       0.47640   0.45090   0.16460
O          O       0.34210   0.30350   0.86950
C          C       0.15040   0.45810   0.19300
H          H       0.12480   0.45660   0.16240
C          C       0.41630   0.45540   0.14330
C          C       0.12400   0.58250   0.30290
C          C       0.34180   0.47730   0.13890
H          H       0.34270   0.48700   0.07220
C          C       0.44850   0.51100   0.99470
H          H       0.46590   0.54750   0.03320
C          C       0.41990   0.45490   0.03390
C          C       0.39940   0.39810   0.88440
C          C       0.39590   0.39790   0.98220
H          H       0.37690   0.35840   0.01270
C          C       0.37240   0.33720   0.82780
O          O       0.38120   0.32410   0.74160
C          C       0.42700   0.45770   0.84130
H          H       0.42890   0.46020   0.77410
Co         Co      0.38120   0.20730   0.66630
O          O       0.33650   0.20730   0.57220
O          O       0.42720   0.20730   0.58590
C          C       0.53510   0.20730   0.53890
N          N       0.49110   0.20730   0.52900
C          C       0.47310   0.20730   0.43300
C          C       0.46380   0.20730   0.59890
O          O       0.31970   0.21430   0.70550
H          H       0.69630   0.58680   0.56240
H          H       0.72050   0.56920   0.45090
H          H       0.74800   0.61730   0.54770
H          H       0.72220   0.82090   0.39940
H          H       0.76360   0.75900   0.44920
H          H       0.73610   0.71110   0.35240
H          H       0.66680   0.81410   0.49250
H          H       0.54940   0.31410   0.99250
H          H       0.49400   0.32090   0.89940
H          H       0.48010   0.21110   0.85240
H          H       0.45260   0.25900   0.94920
H          H       0.51990   0.08680   0.06240
H          H       0.46830   0.11740   0.04770
H          H       0.49570   0.06920   0.95090
H          H       0.47570   0.20730   0.67030
H          H       0.54310   0.20730   0.61410
H          H       0.54750   0.14570   0.50510
H          H       0.54750   0.26890   0.50510
H          H       0.44030   0.20730   0.43880
H          H       0.48280   0.26890   0.39450
H          H       0.48280   0.14570   0.39450
H          H       0.55800   0.82520   0.10600
H          H       0.54600   0.68930   0.33520
H          H       0.57720   0.78320   0.29910
H          H       0.52380   0.79220   0.28910
H          H       0.54570   0.57510   0.25380
H          H       0.52320   0.58520   0.13960
H          H       0.57660   0.57800   0.15040
H          H       0.74050   0.70730   0.17030
H          H       0.67310   0.70730   0.11410
H          H       0.66870   0.76900   0.00500
H          H       0.66870   0.64570   0.00500
H          H       0.77590   0.70730   0.93880
H          H       0.73340   0.64570   0.89450
H          H       0.73340   0.76900   0.89450
H          H       0.97570   0.20730   0.45750
H          H       0.04900   0.20730   0.65900
H          H       0.04450   0.14570   0.55020
H          H       0.04450   0.26890   0.55020
H          H       0.94030   0.20730   0.68910
H          H       0.98280   0.14570   0.73330
H          H       0.98280   0.26890   0.73330
H          H       0.15830   0.32500   0.52200
H          H       0.16530   0.08390   0.51930
H          H       0.14210   0.07370   0.40580
H          H       0.19560   0.08070   0.41510
H          H       0.16470   0.32070   0.34770
H          H       0.19520   0.22580   0.31090
H          H       0.14170   0.21860   0.30160
H          H       0.04940   0.31410   0.13540
H          H       0.95740   0.20600   0.22740
H          H       0.99860   0.26920   0.27610
H          H       0.97070   0.31590   0.17930
H          H       0.96960   0.09510   0.15020
H          H       0.99310   0.11340   0.03830
H          H       0.02120   0.06510   0.13400
H          H       0.05790   0.58950   0.02200
H          H       0.05090   0.83080   0.01930
H          H       0.07400   0.84120   0.90570
H          H       0.02060   0.83400   0.91510
H          H       0.05160   0.59400   0.84770
H          H       0.02100   0.68900   0.81110
H          H       0.07440   0.69620   0.80160
H          H       0.16680   0.81410   0.63520
H          H       0.25880   0.70600   0.72740
H          H       0.24550   0.81590   0.67930
H          H       0.21760   0.76920   0.77610
H          H       0.24660   0.59510   0.65020
H          H       0.19500   0.56510   0.63400
H          H       0.22310   0.61340   0.53820
H          H       0.24050   0.70730   0.95750
H          H       0.27590   0.70730   0.18910
H          H       0.23340   0.76900   0.23340
H          H       0.23340   0.64570   0.23340
H          H       0.16720   0.70730   0.15900
H          H       0.17170   0.76900   0.05010
H          H       0.17170   0.64570   0.05010
H          H       0.87910   0.64230   0.03150
H          H       0.87600   0.76630   0.02340
H          H       0.83710   0.27230   0.59640
H          H       0.85390   0.17220   0.60520
H          H       0.79010   0.13750   0.10290
H          H       0.79010   0.27710   0.10290
H          H       0.92610   0.77720   0.52510
H          H       0.92610   0.63750   0.52510
H          H       0.91460   0.64900   0.16990
H          H       0.91460   0.76570   0.16990
H          H       0.65830   0.32510   0.60600
H          H       0.67050   0.07510   0.75380
H          H       0.63960   0.07800   0.65050
H          H       0.69300   0.08520   0.63950
H          H       0.80180   0.15660   0.46280
H          H       0.82760   0.13200   0.43840
H          H       0.33710   0.27230   0.53140
H          H       0.34010   0.14830   0.52340
H          H       0.26380   0.17700   0.03530
H          H       0.28460   0.22530   0.07330
H          H       0.35220   0.67280   0.08560
H          H       0.37760   0.76960   0.10050
H          H       0.67020   0.18950   0.83540
H          H       0.69240   0.29230   0.78910
H          H       0.63900   0.28340   0.79910
