data_crystal

_cell_length_a    30.83380
_cell_length_b    10.63700
_cell_length_c    42.86450
_cell_angle_alpha 90.00000
_cell_angle_beta  90.00000
_cell_angle_gamma 90.00000

_symmetry_space_group_name_Hall 'P 1'
_symmetry_space_group_name_H-M  'P 1'

loop_
_symmetry_equiv_pos_as_xyz
 'x,y,z'

loop_
_atom_site_label
_atom_site_type_symbol
_atom_site_fract_x
_atom_site_fract_y
_atom_site_fract_z
Zn         Zn      0.47410   0.23120   0.12770
Zn         Zn      0.51380   0.85110   0.21950
O          O       0.47410   0.73120   0.23990
O          O       0.55590   0.75650   0.19480
O          O       0.52780   0.68210   0.87200
N          N       0.45430   0.09650   0.15760
N          N       0.40940   0.97390   0.22800
N          N       0.47350   0.95850   0.19490
N          N       0.35680   0.11880   0.20780
N          N       0.36400   0.22470   0.16150
H          H       0.33820   0.25790   0.16440
H          H       0.37900   0.24360   0.14460
O          O       0.57530   0.92710   0.16970
C          C       0.42110   0.08940   0.17940
C          C       0.43340   0.00400   0.20190
C          C       0.48350   0.01800   0.16810
H          H       0.51010   0.00380   0.15750
C          C       0.38040   0.14570   0.18250
C          C       0.57610   0.81170   0.17300
C          C       0.37180   0.03950   0.22910
N          N       0.34510   0.01820   0.25420
H          H       0.36000   0.02060   0.27150
H          H       0.32490   0.07550   0.25500
C          C       0.52780   0.59200   0.89030
C          C       0.61310   0.61490   0.15690
H          H       0.60150   0.57470   0.17490
O          O       0.49430   0.52590   0.89470
C          C       0.60270   0.73410   0.15090
C          C       0.64020   0.54960   0.13730
H          H       0.64830   0.46640   0.14290
C          C       0.65570   0.59730   0.11090
C          C       0.72410   0.48120   0.10680
H          H       0.72410   0.48120   0.12900
C          C       0.61940   0.79330   0.12470
H          H       0.61260   0.87890   0.12060
C          C       0.64560   0.72730   0.10490
H          H       0.65720   0.76750   0.08700
C          C       0.57370   0.59070   0.90770
C          C       0.57780   0.50350   0.93170
H          H       0.55430   0.44930   0.93660
C          C       0.61630   0.49560   0.94840
H          H       0.61910   0.43600   0.96480
C          C       0.65070   0.57490   0.94350
C          C       0.64660   0.66210   0.91720
H          H       0.67010   0.71630   0.91220
C          C       0.60810   0.67000   0.90040
H          H       0.60520   0.72960   0.88410
C          C       0.67980   0.45660   0.95780
C          C       0.67710   0.46190   0.99320
C          C       0.68420   0.50030   0.09120
C          C       0.67920   0.48940   0.05770
C          C       0.64010   0.50040   0.00910
H          H       0.61410   0.51740   0.99800
C          C       0.64120   0.51410   0.04140
H          H       0.61580   0.54050   0.05220
O          O       0.89220   0.20590   0.19480
O          O       0.92030   0.28030   0.87200
O          O       0.87280   0.03530   0.16970
C          C       0.87210   0.15070   0.17300
C          C       0.92040   0.37040   0.89030
C          C       0.83510   0.34750   0.15690
H          H       0.84660   0.38770   0.17490
O          O       0.95390   0.43650   0.89470
C          C       0.84550   0.22830   0.15090
C          C       0.80800   0.41280   0.13730
H          H       0.79980   0.49600   0.14290
C          C       0.79250   0.36510   0.11090
C          C       0.82880   0.16910   0.12470
H          H       0.83550   0.08350   0.12060
C          C       0.80260   0.23510   0.10490
H          H       0.79090   0.19490   0.08700
C          C       0.75200   0.37600   0.05910
C          C       0.71440   0.40700   0.04300
C          C       0.71420   0.40670   0.01050
C          C       0.75160   0.37530   0.99420
C          C       0.78930   0.34430   0.01040
H          H       0.81480   0.32280   0.99920
C          C       0.78940   0.34460   0.04280
H          H       0.81510   0.32330   0.05380
C          C       0.75120   0.37520   0.96020
C          C       0.87450   0.37170   0.90770
C          C       0.87040   0.45890   0.93170
H          H       0.89380   0.51310   0.93660
C          C       0.83190   0.46680   0.94840
H          H       0.82900   0.52640   0.96480
C          C       0.79750   0.38750   0.94110
C          C       0.80160   0.30030   0.91720
H          H       0.77810   0.24610   0.91220
C          C       0.84010   0.29240   0.90040
H          H       0.84290   0.23280   0.88410
C          C       0.71530   0.41420   0.94510
H          H       0.71130   0.40680   0.92320
C          C       0.75150   0.39420   0.09380
Zn         Zn      0.93430   0.11130   0.21950
N          N       0.99380   0.86590   0.15760
N          N       0.03870   0.98850   0.22800
N          N       0.97460   0.00390   0.19490
N          N       0.09130   0.84360   0.20780
N          N       0.08410   0.73770   0.16150
H          H       0.10990   0.70450   0.16440
H          H       0.06910   0.71870   0.14460
C          C       0.02700   0.87300   0.17940
C          C       0.01470   0.95840   0.20190
C          C       0.96470   0.94440   0.16810
H          H       0.93800   0.95860   0.15750
C          C       0.06770   0.81670   0.18250
C          C       0.07630   0.92290   0.22910
N          N       0.10310   0.94420   0.25420
H          H       0.08810   0.94180   0.27150
H          H       0.12320   0.88690   0.25500
Zn         Zn      0.47410   0.23120   0.35220
Zn         Zn      0.43430   0.85110   0.26030
O          O       0.39220   0.75650   0.28510
O          O       0.42030   0.68210   0.60790
N          N       0.49380   0.09650   0.32230
N          N       0.53870   0.97390   0.25190
N          N       0.47460   0.95850   0.28500
N          N       0.59130   0.11880   0.27200
N          N       0.58410   0.22470   0.31840
H          H       0.60990   0.25790   0.31550
H          H       0.56910   0.24360   0.33520
O          O       0.37280   0.92710   0.31010
C          C       0.52700   0.08940   0.30040
C          C       0.51470   0.00400   0.27790
C          C       0.46470   0.01800   0.31170
H          H       0.43800   0.00380   0.32230
C          C       0.56770   0.14570   0.29730
C          C       0.37210   0.81170   0.30680
C          C       0.57630   0.03950   0.25070
N          N       0.60310   0.01820   0.22560
H          H       0.58810   0.02060   0.20840
H          H       0.62320   0.07550   0.22480
C          C       0.42040   0.59200   0.58950
C          C       0.33510   0.61490   0.32290
H          H       0.34660   0.57470   0.30490
O          O       0.45390   0.52590   0.58510
C          C       0.34550   0.73410   0.32890
C          C       0.30800   0.54960   0.34250
H          H       0.29980   0.46640   0.33690
C          C       0.29250   0.59730   0.36890
C          C       0.22410   0.48120   0.37300
H          H       0.22410   0.48120   0.35080
C          C       0.32880   0.79330   0.35510
H          H       0.33550   0.87890   0.35930
C          C       0.30260   0.72730   0.37490
H          H       0.29090   0.76750   0.39280
C          C       0.25200   0.58640   0.42070
C          C       0.21440   0.55540   0.43680
C          C       0.21420   0.55570   0.46930
C          C       0.25160   0.58710   0.48560
C          C       0.28930   0.61810   0.46950
H          H       0.31480   0.63960   0.48060
C          C       0.28940   0.61780   0.43700
H          H       0.31510   0.63910   0.42600
C          C       0.25120   0.58720   0.51960
C          C       0.37450   0.59070   0.57210
C          C       0.37040   0.50350   0.54810
H          H       0.39380   0.44930   0.54320
C          C       0.33190   0.49560   0.53140
H          H       0.32900   0.43600   0.51510
C          C       0.29750   0.57490   0.53870
C          C       0.30160   0.66210   0.56260
H          H       0.27810   0.71630   0.56760
C          C       0.34010   0.67000   0.57940
H          H       0.34290   0.72960   0.59570
C          C       0.21530   0.54820   0.53470
H          H       0.21130   0.55560   0.55660
C          C       0.25150   0.56820   0.38600
O          O       0.05590   0.20590   0.28510
O          O       0.02780   0.28030   0.60790
O          O       0.07530   0.03530   0.31010
C          C       0.07610   0.15070   0.30680
C          C       0.02780   0.37040   0.58950
C          C       0.11310   0.34750   0.32290
H          H       0.10150   0.38770   0.30490
O          O       0.99430   0.43650   0.58510
C          C       0.10270   0.22830   0.32890
C          C       0.14020   0.41280   0.34250
H          H       0.14830   0.49600   0.33690
C          C       0.15570   0.36510   0.36890
C          C       0.11940   0.16910   0.35510
H          H       0.11260   0.08350   0.35930
C          C       0.14560   0.23510   0.37490
H          H       0.15720   0.19490   0.39280
C          C       0.07370   0.37170   0.57210
C          C       0.07780   0.45890   0.54810
H          H       0.05430   0.51310   0.54320
C          C       0.11630   0.46680   0.53140
H          H       0.11910   0.52640   0.51510
C          C       0.15070   0.39690   0.53870
C          C       0.14660   0.30030   0.56260
H          H       0.17010   0.24610   0.56760
C          C       0.10810   0.29240   0.57940
H          H       0.10520   0.23280   0.59570
C          C       0.17660   0.49640   0.51970
C          C       0.17710   0.50050   0.48660
C          C       0.18420   0.46210   0.38860
C          C       0.17920   0.47300   0.42210
C          C       0.14010   0.46200   0.47070
H          H       0.11410   0.44500   0.48190
C          C       0.14120   0.44830   0.43850
H          H       0.11580   0.42190   0.42760
Zn         Zn      0.43430   0.61130   0.21950
N          N       0.53870   0.48850   0.22800
N          N       0.47460   0.50390   0.19490
N          N       0.59130   0.34360   0.20780
N          N       0.58410   0.23770   0.16150
H          H       0.60990   0.20450   0.16440
H          H       0.56910   0.21870   0.14460
C          C       0.52700   0.37300   0.17940
C          C       0.51470   0.45840   0.20190
C          C       0.46470   0.44440   0.16810
H          H       0.43800   0.45860   0.15750
C          C       0.56770   0.31670   0.18250
C          C       0.57630   0.42290   0.22910
N          N       0.60310   0.44420   0.25420
H          H       0.58810   0.44180   0.27150
H          H       0.62320   0.38690   0.25500
Zn         Zn      0.97410   0.73120   0.12770
Zn         Zn      0.47410   0.73120   0.85220
Zn         Zn      0.97410   0.23120   0.85220
Zn         Zn      0.47410   0.73120   0.62770
Zn         Zn      0.97410   0.23120   0.62770
Zn         Zn      0.01380   0.11130   0.26030
Zn         Zn      0.51380   0.61130   0.26030
O          O       0.97410   0.23120   0.23990
O          O       0.39220   0.70590   0.19480
O          O       0.42030   0.28030   0.10790
O          O       0.52780   0.28030   0.37200
O          O       0.52780   0.18210   0.10790
O          O       0.42030   0.18210   0.37200
N          N       0.49380   0.36590   0.15760
N          N       0.45430   0.36590   0.32230
N          N       0.90940   0.98850   0.25190
N          N       0.40940   0.48850   0.25190
Zn         Zn      0.97410   0.73120   0.35220
N          N       0.95430   0.86590   0.32230
N          N       0.97350   0.00390   0.28500
N          N       0.85680   0.84360   0.27200
N          N       0.86400   0.73770   0.31840
H          H       0.83820   0.70450   0.31550
H          H       0.87900   0.71870   0.33520
C          C       0.92110   0.87300   0.30040
C          C       0.93340   0.95840   0.27790
C          C       0.98350   0.94440   0.31170
H          H       0.01010   0.95860   0.32230
C          C       0.88040   0.81670   0.29730
C          C       0.87180   0.92290   0.25070
N          N       0.84510   0.94420   0.22560
H          H       0.86000   0.94180   0.20840
H          H       0.82490   0.88690   0.22480
Zn         Zn      0.01380   0.35110   0.21950
N          N       0.90940   0.47390   0.22800
N          N       0.97350   0.45850   0.19490
N          N       0.85680   0.61880   0.20780
N          N       0.86400   0.72470   0.16150
H          H       0.83820   0.75790   0.16440
H          H       0.87900   0.74360   0.14460
C          C       0.92110   0.58940   0.17940
C          C       0.93340   0.50400   0.20190
C          C       0.98350   0.51800   0.16810
H          H       0.01010   0.50380   0.15750
C          C       0.88040   0.64570   0.18250
C          C       0.87180   0.53950   0.22910
N          N       0.84510   0.51820   0.25420
H          H       0.86000   0.52060   0.27150
H          H       0.82490   0.57550   0.25500
Zn         Zn      0.93430   0.35110   0.26030
O          O       0.05590   0.25650   0.19480
O          O       0.02780   0.68210   0.10790
O          O       0.92030   0.68210   0.37200
O          O       0.92030   0.78030   0.10790
O          O       0.02780   0.78030   0.37200
N          N       0.95430   0.59650   0.15760
N          N       0.99380   0.59650   0.32230
N          N       0.03870   0.47390   0.25190
N          N       0.47350   0.50390   0.28500
N          N       0.35680   0.34360   0.27200
N          N       0.36400   0.23770   0.31840
H          H       0.33820   0.20450   0.31550
H          H       0.37900   0.21870   0.33520
C          C       0.42110   0.37300   0.30040
C          C       0.43340   0.45840   0.27790
C          C       0.48350   0.44440   0.31170
H          H       0.51010   0.45860   0.32230
C          C       0.38040   0.31670   0.29730
C          C       0.37180   0.42290   0.25070
N          N       0.34510   0.44420   0.22560
H          H       0.36000   0.44180   0.20840
H          H       0.32490   0.38690   0.22480
O          O       0.55590   0.70590   0.28510
N          N       0.97460   0.45850   0.28500
N          N       0.09130   0.61880   0.27200
N          N       0.08410   0.72470   0.31840
H          H       0.10990   0.75790   0.31550
H          H       0.06910   0.74360   0.33520
C          C       0.02700   0.58940   0.30040
C          C       0.01470   0.50400   0.27790
C          C       0.96470   0.51800   0.31170
H          H       0.93800   0.50380   0.32230
C          C       0.06770   0.64570   0.29730
C          C       0.07630   0.53950   0.25070
N          N       0.10310   0.51820   0.22560
H          H       0.08810   0.52060   0.20840
H          H       0.12320   0.57550   0.22480
O          O       0.89220   0.25650   0.28510
O          O       0.02780   0.18210   0.87200
O          O       0.07530   0.42710   0.16970
C          C       0.07610   0.31170   0.17300
C          C       0.02780   0.09200   0.89030
C          C       0.11310   0.11490   0.15690
H          H       0.10150   0.07470   0.17490
O          O       0.99430   0.02590   0.89470
C          C       0.10270   0.23410   0.15090
C          C       0.14020   0.04960   0.13730
H          H       0.14830   0.96640   0.14290
C          C       0.15570   0.09730   0.11090
C          C       0.22410   0.98120   0.10680
H          H       0.22410   0.98120   0.12900
C          C       0.11940   0.29330   0.12470
H          H       0.11260   0.37890   0.12060
C          C       0.14560   0.22730   0.10490
H          H       0.15720   0.26750   0.08700
C          C       0.07370   0.09070   0.90770
C          C       0.07780   0.00350   0.93170
H          H       0.05430   0.94930   0.93660
C          C       0.11630   0.99560   0.94840
H          H       0.11910   0.93600   0.96480
C          C       0.15070   0.06550   0.94110
C          C       0.14660   0.16210   0.91720
H          H       0.17010   0.21630   0.91220
C          C       0.10810   0.17000   0.90040
H          H       0.10520   0.22960   0.88410
C          C       0.17660   0.94720   0.95780
C          C       0.17710   0.96190   0.99320
C          C       0.18420   0.00030   0.09120
C          C       0.17920   0.98940   0.05770
C          C       0.14010   0.00040   0.00910
H          H       0.11410   0.01740   0.99800
C          C       0.14120   0.01410   0.04140
H          H       0.11580   0.04050   0.05220
O          O       0.42030   0.78030   0.87200
O          O       0.37280   0.53530   0.16970
C          C       0.37210   0.65070   0.17300
C          C       0.42040   0.87040   0.89030
C          C       0.33510   0.84750   0.15690
H          H       0.34660   0.88770   0.17490
O          O       0.45390   0.93650   0.89470
C          C       0.34550   0.72830   0.15090
C          C       0.30800   0.91280   0.13730
H          H       0.29980   0.99600   0.14290
C          C       0.29250   0.86510   0.11090
C          C       0.32880   0.66910   0.12470
H          H       0.33550   0.58350   0.12060
C          C       0.30260   0.73510   0.10490
H          H       0.29090   0.69490   0.08700
C          C       0.25200   0.87600   0.05910
C          C       0.21440   0.90700   0.04300
C          C       0.21420   0.90670   0.01050
C          C       0.25160   0.87530   0.99420
C          C       0.28930   0.84430   0.01040
H          H       0.31480   0.82280   0.99920
C          C       0.28940   0.84460   0.04280
H          H       0.31510   0.82330   0.05380
C          C       0.25120   0.87520   0.96020
C          C       0.37450   0.87170   0.90770
C          C       0.37040   0.95890   0.93170
H          H       0.39380   0.01310   0.93660
C          C       0.33190   0.96680   0.94840
H          H       0.32900   0.02640   0.96480
C          C       0.29750   0.88750   0.94110
C          C       0.30160   0.80030   0.91720
H          H       0.27810   0.74610   0.91220
C          C       0.34010   0.79240   0.90040
H          H       0.34290   0.73280   0.88410
C          C       0.21530   0.91420   0.94510
H          H       0.21130   0.90680   0.92320
C          C       0.25150   0.89420   0.09380
O          O       0.92030   0.18210   0.60790
O          O       0.87280   0.42710   0.31010
C          C       0.87210   0.31170   0.30680
C          C       0.92040   0.09200   0.58950
C          C       0.83510   0.11490   0.32290
H          H       0.84660   0.07470   0.30490
O          O       0.95390   0.02590   0.58510
C          C       0.84550   0.23410   0.32890
C          C       0.80800   0.04960   0.34250
H          H       0.79980   0.96640   0.33690
C          C       0.79250   0.09730   0.36890
C          C       0.72410   0.98120   0.37300
H          H       0.72410   0.98120   0.35080
C          C       0.82880   0.29330   0.35510
H          H       0.83550   0.37890   0.35930
C          C       0.80260   0.22730   0.37490
H          H       0.79090   0.26750   0.39280
C          C       0.75200   0.08640   0.42070
C          C       0.71440   0.05540   0.43680
C          C       0.71420   0.05570   0.46930
C          C       0.75160   0.08710   0.48560
C          C       0.78930   0.11810   0.46950
H          H       0.81480   0.13960   0.48060
C          C       0.78940   0.11780   0.43700
H          H       0.81510   0.13910   0.42600
C          C       0.75120   0.08720   0.51960
C          C       0.87450   0.09070   0.57210
C          C       0.87040   0.00350   0.54810
H          H       0.89380   0.94930   0.54320
C          C       0.83190   0.99560   0.53140
H          H       0.82900   0.93600   0.51510
C          C       0.79750   0.07490   0.53870
C          C       0.80160   0.16210   0.56260
H          H       0.77810   0.21630   0.56760
C          C       0.84010   0.17000   0.57940
H          H       0.84290   0.22960   0.59570
C          C       0.71530   0.04820   0.53470
H          H       0.71130   0.05560   0.55660
C          C       0.75150   0.06820   0.38600
O          O       0.52780   0.78030   0.60790
O          O       0.57530   0.53530   0.31010
C          C       0.57610   0.65070   0.30680
C          C       0.52780   0.87040   0.58950
C          C       0.61310   0.84750   0.32290
H          H       0.60150   0.88770   0.30490
O          O       0.49430   0.93650   0.58510
C          C       0.60270   0.72830   0.32890
C          C       0.64020   0.91280   0.34250
H          H       0.64830   0.99600   0.33690
C          C       0.65570   0.86510   0.36890
C          C       0.61940   0.66910   0.35510
H          H       0.61260   0.58350   0.35930
C          C       0.64560   0.73510   0.37490
H          H       0.65720   0.69490   0.39280
C          C       0.57370   0.87170   0.57210
C          C       0.57780   0.95890   0.54810
H          H       0.55430   0.01310   0.54320
C          C       0.61630   0.96680   0.53140
H          H       0.61910   0.02640   0.51510
C          C       0.65070   0.88750   0.53870
C          C       0.64660   0.80030   0.56260
H          H       0.67010   0.74610   0.56760
C          C       0.60810   0.79240   0.57940
H          H       0.60520   0.73280   0.59570
C          C       0.67660   0.98700   0.51970
C          C       0.67710   0.00050   0.48660
C          C       0.68420   0.96210   0.38860
C          C       0.67920   0.97300   0.42210
C          C       0.64010   0.96200   0.47070
H          H       0.61410   0.94500   0.48190
C          C       0.64120   0.94830   0.43850
H          H       0.61580   0.92190   0.42760
Zn         Zn      0.43430   0.11130   0.76030
O          O       0.47410   0.23120   0.73990
O          O       0.39220   0.20590   0.78510
N          N       0.49380   0.86590   0.82230
N          N       0.53870   0.98850   0.75190
N          N       0.47460   0.00390   0.78500
N          N       0.59130   0.84360   0.77200
N          N       0.58410   0.73770   0.81840
H          H       0.60990   0.70450   0.81550
H          H       0.56910   0.71870   0.83520
O          O       0.37280   0.03530   0.81010
C          C       0.52700   0.87300   0.80040
C          C       0.51470   0.95840   0.77790
C          C       0.46470   0.94440   0.81170
H          H       0.43800   0.95860   0.82230
C          C       0.56770   0.81670   0.79730
C          C       0.37210   0.15070   0.80680
C          C       0.57630   0.92290   0.75070
N          N       0.60310   0.94420   0.72560
H          H       0.58810   0.94180   0.70840
H          H       0.62320   0.88690   0.72480
C          C       0.42040   0.37040   0.08950
C          C       0.33510   0.34750   0.82290
H          H       0.34660   0.38770   0.80490
O          O       0.45390   0.43650   0.08510
C          C       0.34550   0.22830   0.82890
C          C       0.30800   0.41280   0.84250
H          H       0.29980   0.49600   0.83690
C          C       0.29250   0.36510   0.86890
C          C       0.22410   0.48120   0.87300
H          H       0.22410   0.48120   0.85080
C          C       0.32880   0.16910   0.85510
H          H       0.33550   0.08350   0.85930
C          C       0.30260   0.23510   0.87490
H          H       0.29090   0.19490   0.89280
C          C       0.25200   0.37600   0.92070
C          C       0.21440   0.40700   0.93680
C          C       0.21420   0.40670   0.96930
C          C       0.25160   0.37530   0.98560
C          C       0.28930   0.34430   0.96950
H          H       0.31480   0.32280   0.98060
C          C       0.28940   0.34460   0.93700
H          H       0.31510   0.32330   0.92600
C          C       0.25120   0.37520   0.01960
C          C       0.37450   0.37170   0.07210
C          C       0.37040   0.45890   0.04810
H          H       0.39380   0.51310   0.04320
C          C       0.33190   0.46680   0.03140
H          H       0.32900   0.52640   0.01510
C          C       0.29750   0.38750   0.03870
C          C       0.30160   0.30030   0.06260
H          H       0.27810   0.24610   0.06760
C          C       0.34010   0.29240   0.07940
H          H       0.34290   0.23280   0.09570
C          C       0.21530   0.41420   0.03470
H          H       0.21130   0.40680   0.05660
C          C       0.25150   0.39420   0.88600
O          O       0.05590   0.75650   0.78510
O          O       0.07530   0.92710   0.81010
C          C       0.07610   0.81170   0.80680
C          C       0.02780   0.59200   0.08950
C          C       0.11310   0.61490   0.82290
H          H       0.10150   0.57470   0.80490
O          O       0.99430   0.52590   0.08510
C          C       0.10270   0.73410   0.82890
C          C       0.14020   0.54960   0.84250
H          H       0.14830   0.46640   0.83690
C          C       0.15570   0.59730   0.86890
C          C       0.11940   0.79330   0.85510
H          H       0.11260   0.87890   0.85930
C          C       0.14560   0.72730   0.87490
H          H       0.15720   0.76750   0.89280
C          C       0.07370   0.59070   0.07210
C          C       0.07780   0.50350   0.04810
H          H       0.05430   0.44930   0.04320
C          C       0.11630   0.49560   0.03140
H          H       0.11910   0.43600   0.01510
C          C       0.15070   0.56550   0.03870
C          C       0.14660   0.66210   0.06260
H          H       0.17010   0.71630   0.06760
C          C       0.10810   0.67000   0.07940
H          H       0.10520   0.72960   0.09570
C          C       0.17660   0.46600   0.01970
C          C       0.17710   0.46190   0.98660
C          C       0.18420   0.50030   0.88860
C          C       0.17920   0.48940   0.92210
C          C       0.14010   0.50040   0.97070
H          H       0.11410   0.51740   0.98190
C          C       0.14120   0.51410   0.93850
H          H       0.11580   0.54050   0.92760
Zn         Zn      0.01380   0.85110   0.76030
N          N       0.95430   0.09650   0.82230
N          N       0.90940   0.97390   0.75190
N          N       0.97350   0.95850   0.78500
N          N       0.85680   0.11880   0.77200
N          N       0.86400   0.22470   0.81840
H          H       0.83820   0.25790   0.81550
H          H       0.87900   0.24360   0.83520
C          C       0.92110   0.08940   0.80040
C          C       0.93340   0.00400   0.77790
C          C       0.98350   0.01800   0.81170
H          H       0.01010   0.00380   0.82230
C          C       0.88040   0.14570   0.79730
C          C       0.87180   0.03950   0.75070
N          N       0.84510   0.01820   0.72560
H          H       0.86000   0.02060   0.70840
H          H       0.82490   0.07550   0.72480
Zn         Zn      0.51380   0.11130   0.71950
O          O       0.55590   0.20590   0.69480
N          N       0.45430   0.86590   0.65760
N          N       0.40940   0.98850   0.72800
N          N       0.47350   0.00390   0.69490
N          N       0.35680   0.84360   0.70780
N          N       0.36400   0.73770   0.66150
H          H       0.33820   0.70450   0.66440
H          H       0.37900   0.71870   0.64460
O          O       0.57530   0.03530   0.66970
C          C       0.42110   0.87300   0.67940
C          C       0.43340   0.95840   0.70190
C          C       0.48350   0.94440   0.66810
H          H       0.51010   0.95860   0.65750
C          C       0.38040   0.81670   0.68250
C          C       0.57610   0.15070   0.67300
C          C       0.37180   0.92290   0.72910
N          N       0.34510   0.94420   0.75420
H          H       0.36000   0.94180   0.77150
H          H       0.32490   0.88690   0.75500
C          C       0.52780   0.37040   0.39030
C          C       0.61310   0.34750   0.65690
H          H       0.60150   0.38770   0.67490
O          O       0.49430   0.43650   0.39470
C          C       0.60270   0.22830   0.65090
C          C       0.64020   0.41280   0.63730
H          H       0.64830   0.49600   0.64290
C          C       0.65570   0.36510   0.61090
C          C       0.72410   0.48120   0.60680
H          H       0.72410   0.48120   0.62900
C          C       0.61940   0.16910   0.62470
H          H       0.61260   0.08350   0.62060
C          C       0.64560   0.23510   0.60490
H          H       0.65720   0.19490   0.58700
C          C       0.69620   0.37600   0.55910
C          C       0.73380   0.40700   0.54300
C          C       0.73400   0.40670   0.51050
C          C       0.69660   0.37530   0.49420
C          C       0.65890   0.34430   0.51040
H          H       0.63330   0.32280   0.49920
C          C       0.65880   0.34460   0.54280
H          H       0.63300   0.32330   0.55380
C          C       0.69700   0.37520   0.46020
C          C       0.57370   0.37170   0.40770
C          C       0.57780   0.45890   0.43170
H          H       0.55430   0.51310   0.43660
C          C       0.61630   0.46680   0.44840
H          H       0.61910   0.52640   0.46480
C          C       0.65070   0.38750   0.44110
C          C       0.64660   0.30030   0.41720
H          H       0.67010   0.24610   0.41220
C          C       0.60810   0.29240   0.40040
H          H       0.60520   0.23280   0.38410
C          C       0.73290   0.41420   0.44510
H          H       0.73680   0.40680   0.42320
C          C       0.69670   0.39420   0.59380
O          O       0.89220   0.75650   0.69480
O          O       0.87280   0.92710   0.66970
C          C       0.87210   0.81170   0.67300
C          C       0.92040   0.59200   0.39030
C          C       0.83510   0.61490   0.65690
H          H       0.84660   0.57470   0.67490
O          O       0.95390   0.52590   0.39470
C          C       0.84550   0.73410   0.65090
C          C       0.80800   0.54960   0.63730
H          H       0.79980   0.46640   0.64290
C          C       0.79250   0.59730   0.61090
C          C       0.82880   0.79330   0.62470
H          H       0.83550   0.87890   0.62060
C          C       0.80260   0.72730   0.60490
H          H       0.79090   0.76750   0.58700
C          C       0.87450   0.59070   0.40770
C          C       0.87040   0.50350   0.43170
H          H       0.89380   0.44930   0.43660
C          C       0.83190   0.49560   0.44840
H          H       0.82900   0.43600   0.46480
C          C       0.79750   0.55610   0.44110
C          C       0.80160   0.66210   0.41720
H          H       0.77810   0.71630   0.41220
C          C       0.84010   0.67000   0.40040
H          H       0.84290   0.72960   0.38410
C          C       0.77480   0.46600   0.46010
C          C       0.77110   0.46190   0.49320
C          C       0.76400   0.50030   0.59120
C          C       0.76900   0.48940   0.55770
C          C       0.80810   0.50040   0.50910
H          H       0.83400   0.51740   0.49800
C          C       0.80700   0.51410   0.54140
H          H       0.83230   0.54050   0.55220
Zn         Zn      0.51380   0.35110   0.76030
N          N       0.40940   0.47390   0.75190
N          N       0.47350   0.45850   0.78500
N          N       0.35680   0.61880   0.77200
N          N       0.36400   0.72470   0.81840
H          H       0.33820   0.75790   0.81550
H          H       0.37900   0.74360   0.83520
C          C       0.42110   0.58940   0.80040
C          C       0.43340   0.50400   0.77790
C          C       0.48350   0.51800   0.81170
H          H       0.51010   0.50380   0.82230
C          C       0.38040   0.64570   0.79730
C          C       0.37180   0.53950   0.75070
N          N       0.34510   0.51820   0.72560
H          H       0.36000   0.52060   0.70840
H          H       0.32490   0.57550   0.72480
Zn         Zn      0.93430   0.85110   0.71950
Zn         Zn      0.43430   0.35110   0.71950
O          O       0.97410   0.73120   0.73990
O          O       0.55590   0.25650   0.78510
N          N       0.45430   0.59650   0.82230
N          N       0.49380   0.59650   0.65760
N          N       0.03870   0.97390   0.72800
N          N       0.53870   0.47390   0.72800
N          N       0.99380   0.09650   0.65760
N          N       0.97460   0.95850   0.69490
N          N       0.09130   0.11880   0.70780
N          N       0.08410   0.22470   0.66150
H          H       0.10990   0.25790   0.66440
H          H       0.06910   0.24360   0.64460
C          C       0.02700   0.08940   0.67940
C          C       0.01470   0.00400   0.70190
C          C       0.96470   0.01800   0.66810
H          H       0.93800   0.00380   0.65750
C          C       0.06770   0.14570   0.68250
C          C       0.07630   0.03950   0.72910
N          N       0.10310   0.01820   0.75420
H          H       0.08810   0.02060   0.77150
H          H       0.12320   0.07550   0.75500
Zn         Zn      0.93430   0.61130   0.76030
N          N       0.03870   0.48850   0.75190
N          N       0.97460   0.50390   0.78500
N          N       0.09130   0.34360   0.77200
N          N       0.08410   0.23770   0.81840
H          H       0.10990   0.20450   0.81550
H          H       0.06910   0.21870   0.83520
C          C       0.02700   0.37300   0.80040
C          C       0.01470   0.45840   0.77790
C          C       0.96470   0.44440   0.81170
H          H       0.93800   0.45860   0.82230
C          C       0.06770   0.31670   0.79730
C          C       0.07630   0.42290   0.75070
N          N       0.10310   0.44420   0.72560
H          H       0.08810   0.44180   0.70840
H          H       0.12320   0.38690   0.72480
Zn         Zn      0.01380   0.61130   0.71950
O          O       0.89220   0.70590   0.78510
N          N       0.99380   0.36590   0.82230
N          N       0.95430   0.36590   0.65760
N          N       0.90940   0.48850   0.72800
N          N       0.47460   0.45850   0.69490
N          N       0.59130   0.61880   0.70780
N          N       0.58410   0.72470   0.66150
H          H       0.60990   0.75790   0.66440
H          H       0.56910   0.74360   0.64460
C          C       0.52700   0.58940   0.67940
C          C       0.51470   0.50400   0.70190
C          C       0.46470   0.51800   0.66810
H          H       0.43800   0.50380   0.65750
C          C       0.56770   0.64570   0.68250
C          C       0.57630   0.53950   0.72910
N          N       0.60310   0.51820   0.75420
H          H       0.58810   0.52060   0.77150
H          H       0.62320   0.57550   0.75500
O          O       0.39220   0.25650   0.69480
N          N       0.97350   0.50390   0.69490
N          N       0.85680   0.34360   0.70780
N          N       0.86400   0.23770   0.66150
H          H       0.83820   0.20450   0.66440
H          H       0.87900   0.21870   0.64460
C          C       0.92110   0.37300   0.67940
C          C       0.93340   0.45840   0.70190
C          C       0.98350   0.44440   0.66810
H          H       0.01010   0.45860   0.65750
C          C       0.88040   0.31670   0.68250
C          C       0.87180   0.42290   0.72910
N          N       0.84510   0.44420   0.75420
H          H       0.86000   0.44180   0.77150
H          H       0.82490   0.38690   0.75500
O          O       0.05590   0.70590   0.69480
O          O       0.87280   0.53530   0.81010
C          C       0.87210   0.65070   0.80680
C          C       0.92040   0.87040   0.08950
C          C       0.83510   0.84750   0.82290
H          H       0.84660   0.88770   0.80490
O          O       0.95390   0.93650   0.08510
C          C       0.84550   0.72830   0.82890
C          C       0.80800   0.91280   0.84250
H          H       0.79980   0.99600   0.83690
C          C       0.79250   0.86510   0.86890
C          C       0.72410   0.98120   0.87300
H          H       0.72410   0.98120   0.85080
C          C       0.82880   0.66910   0.85510
H          H       0.83550   0.58350   0.85930
C          C       0.80260   0.73510   0.87490
H          H       0.79090   0.69490   0.89280
C          C       0.87450   0.87170   0.07210
C          C       0.87040   0.95890   0.04810
H          H       0.89380   0.01310   0.04320
C          C       0.83190   0.96680   0.03140
H          H       0.82900   0.02640   0.01510
C          C       0.79750   0.88750   0.03640
C          C       0.80160   0.80030   0.06260
H          H       0.77810   0.74610   0.06760
C          C       0.84010   0.79240   0.07940
H          H       0.84290   0.73280   0.09570
C          C       0.77160   0.00580   0.01970
C          C       0.77110   0.00050   0.98660
C          C       0.76400   0.96210   0.88860
C          C       0.76900   0.97300   0.92210
C          C       0.80810   0.96200   0.97070
H          H       0.83400   0.94500   0.98190
C          C       0.80700   0.94830   0.93850
H          H       0.83230   0.92190   0.92760
O          O       0.57530   0.42710   0.81010
C          C       0.57610   0.31170   0.80680
C          C       0.52780   0.09200   0.08950
C          C       0.61310   0.11490   0.82290
H          H       0.60150   0.07470   0.80490
O          O       0.49430   0.02590   0.08510
C          C       0.60270   0.23410   0.82890
C          C       0.64020   0.04960   0.84250
H          H       0.64830   0.96640   0.83690
C          C       0.65570   0.09730   0.86890
C          C       0.61940   0.29330   0.85510
H          H       0.61260   0.37890   0.85930
C          C       0.64560   0.22730   0.87490
H          H       0.65720   0.26750   0.89280
C          C       0.69620   0.08640   0.92070
C          C       0.73380   0.05540   0.93680
C          C       0.73400   0.05570   0.96930
C          C       0.69660   0.08710   0.98560
C          C       0.65890   0.11810   0.96950
H          H       0.63330   0.13960   0.98060
C          C       0.65880   0.11780   0.93700
H          H       0.63300   0.13910   0.92600
C          C       0.69700   0.08720   0.01960
C          C       0.57370   0.09070   0.07210
C          C       0.57780   0.00350   0.04810
H          H       0.55430   0.94930   0.04320
C          C       0.61630   0.99560   0.03140
H          H       0.61910   0.93600   0.01510
C          C       0.65070   0.07490   0.03870
C          C       0.64660   0.16210   0.06260
H          H       0.67010   0.21630   0.06760
C          C       0.60810   0.17000   0.07940
H          H       0.60520   0.22960   0.09570
C          C       0.73290   0.04820   0.03470
H          H       0.73680   0.05560   0.05660
C          C       0.69670   0.06820   0.88600
O          O       0.07530   0.53530   0.66970
C          C       0.07610   0.65070   0.67300
C          C       0.02780   0.87040   0.39030
C          C       0.11310   0.84750   0.65690
H          H       0.10150   0.88770   0.67490
O          O       0.99430   0.93650   0.39470
C          C       0.10270   0.72830   0.65090
C          C       0.14020   0.91280   0.63730
H          H       0.14830   0.99600   0.64290
C          C       0.15570   0.86510   0.61090
C          C       0.22410   0.98120   0.60680
H          H       0.22410   0.98120   0.62900
C          C       0.11940   0.66910   0.62470
H          H       0.11260   0.58350   0.62060
C          C       0.14560   0.73510   0.60490
H          H       0.15720   0.69490   0.58700
C          C       0.19620   0.87600   0.55910
C          C       0.23380   0.90700   0.54300
C          C       0.23400   0.90670   0.51050
C          C       0.19660   0.87530   0.49420
C          C       0.15890   0.84430   0.51040
H          H       0.13330   0.82280   0.49920
C          C       0.15880   0.84460   0.54280
H          H       0.13300   0.82330   0.55380
C          C       0.19700   0.87520   0.46020
C          C       0.07370   0.87170   0.40770
C          C       0.07780   0.95890   0.43170
H          H       0.05430   0.01310   0.43660
C          C       0.11630   0.96680   0.44840
H          H       0.11910   0.02640   0.46480
C          C       0.15070   0.88750   0.44110
C          C       0.14660   0.80030   0.41720
H          H       0.17010   0.74610   0.41220
C          C       0.10810   0.79240   0.40040
H          H       0.10520   0.73280   0.38410
C          C       0.23290   0.91420   0.44510
H          H       0.23680   0.90680   0.42320
C          C       0.19670   0.89420   0.59380
O          O       0.37280   0.42710   0.66970
C          C       0.37210   0.31170   0.67300
C          C       0.42040   0.09200   0.39030
C          C       0.33510   0.11490   0.65690
H          H       0.34660   0.07470   0.67490
O          O       0.45390   0.02590   0.39470
C          C       0.34550   0.23410   0.65090
C          C       0.30800   0.04960   0.63730
H          H       0.29980   0.96640   0.64290
C          C       0.29250   0.09730   0.61090
C          C       0.32880   0.29330   0.62470
H          H       0.33550   0.37890   0.62060
C          C       0.30260   0.22730   0.60490
H          H       0.29090   0.26750   0.58700
C          C       0.37450   0.09070   0.40770
C          C       0.37040   0.00350   0.43170
H          H       0.39380   0.94930   0.43660
C          C       0.33190   0.99560   0.44840
H          H       0.32900   0.93600   0.46480
C          C       0.29750   0.06550   0.44110
C          C       0.30160   0.16210   0.41720
H          H       0.27810   0.21630   0.41220
C          C       0.34010   0.17000   0.40040
H          H       0.34290   0.22960   0.38410
C          C       0.27160   0.96600   0.46010
C          C       0.27110   0.96190   0.49320
C          C       0.26400   0.00030   0.59120
C          C       0.26900   0.98940   0.55770
C          C       0.30810   0.00040   0.50910
H          H       0.33400   0.01740   0.49800
C          C       0.30700   0.01410   0.54140
H          H       0.33230   0.04050   0.55220
