data_crystal

_cell_length_a    30.75750
_cell_length_b    10.75690
_cell_length_c    42.59420
_cell_angle_alpha 90.00000
_cell_angle_beta  90.00000
_cell_angle_gamma 90.00000

_symmetry_space_group_name_Hall 'P 1'
_symmetry_space_group_name_H-M  'P 1'

loop_
_symmetry_equiv_pos_as_xyz
 'x,y,z'

loop_
_atom_site_label
_atom_site_type_symbol
_atom_site_fract_x
_atom_site_fract_y
_atom_site_fract_z
Zn         Zn      0.50000   0.75000   0.36270
Zn         Zn      0.46060   0.13420   0.27170
O          O       0.41840   0.22690   0.29560
N          N       0.52010   0.88230   0.33210
N          N       0.50050   0.02600   0.29580
O          O       0.44570   0.30440   0.61880
N          N       0.56290   0.01410   0.26190
N          N       0.61540   0.86710   0.27920
C          C       0.49070   0.96320   0.32270
H          H       0.46440   0.97680   0.33390
C          C       0.53930   0.98240   0.28770
O          O       0.39660   0.05110   0.31390
C          C       0.55220   0.89380   0.30960
N          N       0.60780   0.75080   0.32600
H          H       0.58690   0.71940   0.33690
H          H       0.62020   0.69230   0.31540
C          C       0.39570   0.16220   0.31390
C          C       0.59190   0.83600   0.30550
C          C       0.60010   0.94700   0.25990
H          H       0.61720   0.96150   0.24170
C          C       0.36920   0.23640   0.33710
C          C       0.40570   0.41320   0.58290
C          C       0.44480   0.38550   0.60040
C          C       0.35940   0.35760   0.33280
H          H       0.37110   0.39990   0.31510
O          O       0.47830   0.45170   0.59670
C          C       0.36920   0.35950   0.58860
H          H       0.36770   0.29720   0.60430
C          C       0.31590   0.36920   0.37750
C          C       0.34950   0.17060   0.36150
H          H       0.35440   0.08420   0.36440
C          C       0.33340   0.42020   0.35270
H          H       0.32750   0.50540   0.34860
C          C       0.40530   0.50290   0.55990
H          H       0.43080   0.54980   0.55570
C          C       0.32190   0.23870   0.38170
H          H       0.30720   0.19720   0.39830
C          C       0.25000   0.50000   0.38150
H          H       0.25000   0.50000   0.35920
C          C       0.28540   0.44700   0.39770
C          C       0.33130   0.39140   0.57190
H          H       0.30470   0.36400   0.58090
C          C       0.32060   0.39420   0.44720
H          H       0.34430   0.35860   0.43620
C          C       0.28600   0.44600   0.43080
C          C       0.25030   0.49960   0.44700
C          C       0.25030   0.49960   0.47960
C          C       0.28560   0.44660   0.49600
C          C       0.32040   0.39450   0.47990
H          H       0.34400   0.35910   0.49110
C          C       0.36660   0.52570   0.54240
H          H       0.36570   0.59020   0.52720
C          C       0.32810   0.44740   0.54830
C          C       0.28520   0.44730   0.52920
C          C       0.25000   0.50000   0.54520
H          H       0.25000   0.50000   0.56750
O          O       0.08160   0.77310   0.29560
O          O       0.05440   0.69560   0.61880
O          O       0.10340   0.94890   0.31390
C          C       0.10430   0.83780   0.31390
C          C       0.13080   0.76360   0.33710
C          C       0.09430   0.58680   0.58290
C          C       0.05520   0.61450   0.60040
C          C       0.14060   0.64240   0.33280
H          H       0.12890   0.60010   0.31510
O          O       0.02170   0.54830   0.59670
C          C       0.13080   0.64050   0.58860
H          H       0.13230   0.70280   0.60430
C          C       0.18410   0.63080   0.37750
C          C       0.15050   0.82940   0.36150
H          H       0.14560   0.91580   0.36440
C          C       0.16660   0.57980   0.35270
H          H       0.17250   0.49460   0.34860
C          C       0.09470   0.49710   0.55990
H          H       0.06920   0.45020   0.55570
C          C       0.17810   0.76130   0.38170
H          H       0.19280   0.80280   0.39830
C          C       0.21460   0.55300   0.39770
C          C       0.16870   0.60860   0.57190
H          H       0.19530   0.63600   0.58090
C          C       0.17940   0.60580   0.44720
H          H       0.15570   0.64140   0.43620
C          C       0.21400   0.55400   0.43080
C          C       0.21440   0.55340   0.49600
C          C       0.17960   0.60550   0.47990
H          H       0.15600   0.64090   0.49110
C          C       0.13340   0.47430   0.54240
H          H       0.13430   0.40980   0.52720
C          C       0.17190   0.55260   0.54830
C          C       0.21480   0.55270   0.52920
Zn         Zn      0.03940   0.86580   0.27170
N          N       0.97990   0.11770   0.33210
N          N       0.99950   0.97400   0.29580
N          N       0.93710   0.98590   0.26190
N          N       0.88460   0.13290   0.27920
C          C       0.00930   0.03680   0.32270
H          H       0.03560   0.02320   0.33390
C          C       0.96070   0.01760   0.28770
C          C       0.94780   0.10620   0.30960
N          N       0.89220   0.24920   0.32600
H          H       0.91310   0.28060   0.33690
H          H       0.87980   0.30770   0.31540
C          C       0.90810   0.16400   0.30550
C          C       0.89990   0.05300   0.25990
H          H       0.88280   0.03850   0.24170
Zn         Zn      0.50000   0.75000   0.13730
Zn         Zn      0.53940   0.13420   0.22830
O          O       0.58160   0.22690   0.20440
N          N       0.47990   0.88230   0.16790
N          N       0.49950   0.02600   0.20420
O          O       0.55440   0.30440   0.88120
N          N       0.43710   0.01410   0.23810
N          N       0.38460   0.86710   0.22080
C          C       0.50930   0.96320   0.17730
H          H       0.53560   0.97680   0.16610
C          C       0.46070   0.98240   0.21230
O          O       0.60340   0.05110   0.18610
C          C       0.44780   0.89380   0.19040
N          N       0.39220   0.75080   0.17400
H          H       0.41310   0.71940   0.16310
H          H       0.37980   0.69230   0.18460
C          C       0.60430   0.16220   0.18610
C          C       0.40810   0.83600   0.19450
C          C       0.39990   0.94700   0.24000
H          H       0.38280   0.96150   0.25830
C          C       0.63080   0.23640   0.16290
C          C       0.59430   0.41320   0.91710
C          C       0.55520   0.38550   0.89960
C          C       0.64060   0.35760   0.16720
H          H       0.62890   0.39990   0.18490
O          O       0.52170   0.45170   0.90330
C          C       0.63080   0.35950   0.91140
H          H       0.63230   0.29720   0.89570
C          C       0.68410   0.36920   0.12250
C          C       0.65050   0.17060   0.13850
H          H       0.64560   0.08420   0.13560
C          C       0.66660   0.42020   0.14730
H          H       0.67250   0.50540   0.15140
C          C       0.59470   0.50290   0.94010
H          H       0.56920   0.54980   0.94430
C          C       0.67810   0.23870   0.11830
H          H       0.69280   0.19720   0.10170
C          C       0.75000   0.50000   0.11850
H          H       0.75000   0.50000   0.14080
C          C       0.71460   0.44700   0.10230
C          C       0.66870   0.39140   0.92810
H          H       0.69530   0.36400   0.91910
C          C       0.67940   0.39420   0.05280
H          H       0.65570   0.35860   0.06380
C          C       0.71400   0.44600   0.06920
C          C       0.74970   0.49960   0.05300
C          C       0.74970   0.49960   0.02040
C          C       0.71440   0.44660   0.00390
C          C       0.67960   0.39450   0.02010
H          H       0.65600   0.35910   0.00890
C          C       0.63340   0.52570   0.95760
H          H       0.63430   0.59020   0.97280
C          C       0.67190   0.44740   0.95170
C          C       0.71480   0.44730   0.97080
C          C       0.75000   0.50000   0.95480
H          H       0.75000   0.50000   0.93250
O          O       0.91840   0.77310   0.20440
O          O       0.94570   0.69560   0.88120
O          O       0.89660   0.94890   0.18610
C          C       0.89570   0.83780   0.18610
C          C       0.86920   0.76360   0.16290
C          C       0.90570   0.58680   0.91710
C          C       0.94480   0.61450   0.89960
C          C       0.85940   0.64240   0.16720
H          H       0.87110   0.60010   0.18490
O          O       0.97830   0.54830   0.90330
C          C       0.86920   0.64050   0.91140
H          H       0.86770   0.70280   0.89570
C          C       0.81590   0.63080   0.12250
C          C       0.84950   0.82940   0.13850
H          H       0.85440   0.91580   0.13560
C          C       0.83340   0.57980   0.14730
H          H       0.82750   0.49460   0.15140
C          C       0.90530   0.49710   0.94010
H          H       0.93080   0.45020   0.94430
C          C       0.82190   0.76130   0.11830
H          H       0.80720   0.80280   0.10170
C          C       0.78540   0.55300   0.10230
C          C       0.83130   0.60860   0.92810
H          H       0.80470   0.63600   0.91910
C          C       0.82060   0.60580   0.05280
H          H       0.84430   0.64140   0.06380
C          C       0.78600   0.55400   0.06920
C          C       0.78560   0.55340   0.00390
C          C       0.82040   0.60550   0.02010
H          H       0.84400   0.64090   0.00890
C          C       0.86660   0.47430   0.95760
H          H       0.86570   0.40980   0.97280
C          C       0.82810   0.55260   0.95170
C          C       0.78520   0.55270   0.97080
Zn         Zn      0.53940   0.36580   0.27170
N          N       0.47990   0.61770   0.33210
N          N       0.49950   0.47400   0.29580
N          N       0.43710   0.48590   0.26190
N          N       0.38460   0.63290   0.27920
C          C       0.50930   0.53680   0.32270
H          H       0.53560   0.52320   0.33390
C          C       0.46070   0.51760   0.28770
C          C       0.44780   0.60620   0.30960
N          N       0.39220   0.74920   0.32600
H          H       0.41310   0.78060   0.33690
H          H       0.37980   0.80770   0.31540
C          C       0.40810   0.66400   0.30550
C          C       0.39990   0.55300   0.25990
H          H       0.38280   0.53850   0.24170
Zn         Zn      0.00000   0.25000   0.36270
Zn         Zn      0.50000   0.25000   0.63730
Zn         Zn      0.00000   0.75000   0.63730
Zn         Zn      0.50000   0.25000   0.86270
Zn         Zn      0.00000   0.75000   0.86270
Zn         Zn      0.96060   0.86580   0.22830
Zn         Zn      0.46060   0.36580   0.22830
O          O       0.50000   0.25000   0.25000
O          O       0.00000   0.75000   0.25000
O          O       0.58160   0.27310   0.29560
N          N       0.52010   0.61770   0.16790
O          O       0.55440   0.69560   0.38120
O          O       0.44570   0.69560   0.11880
O          O       0.44570   0.80440   0.38120
O          O       0.55440   0.80440   0.11880
N          N       0.06290   0.98590   0.23810
N          N       0.56290   0.48590   0.23810
N          N       0.02010   0.11770   0.16790
N          N       0.00050   0.97400   0.20420
N          N       0.11540   0.13290   0.22080
C          C       0.99070   0.03680   0.17730
H          H       0.96440   0.02320   0.16610
C          C       0.03930   0.01760   0.21230
C          C       0.05220   0.10620   0.19040
N          N       0.10780   0.24920   0.17400
H          H       0.08690   0.28060   0.16310
H          H       0.12020   0.30770   0.18460
C          C       0.09190   0.16400   0.19450
C          C       0.10010   0.05300   0.24000
H          H       0.11720   0.03850   0.25830
Zn         Zn      0.96060   0.63420   0.27170
N          N       0.02010   0.38230   0.33210
N          N       0.00050   0.52600   0.29580
N          N       0.06290   0.51410   0.26190
N          N       0.11540   0.36710   0.27920
C          C       0.99070   0.46320   0.32270
H          H       0.96440   0.47680   0.33390
C          C       0.03930   0.48240   0.28770
C          C       0.05220   0.39380   0.30960
N          N       0.10780   0.25080   0.32600
H          H       0.08690   0.21940   0.33690
H          H       0.12020   0.19230   0.31540
C          C       0.09190   0.33600   0.30550
C          C       0.10010   0.44700   0.25990
H          H       0.11720   0.46150   0.24170
Zn         Zn      0.03940   0.63420   0.22830
O          O       0.91840   0.72690   0.29560
N          N       0.97990   0.38230   0.16790
O          O       0.05440   0.19560   0.38120
O          O       0.94570   0.19560   0.11880
N          N       0.93710   0.51410   0.23810
N          N       0.50050   0.47400   0.20420
N          N       0.61540   0.63290   0.22080
C          C       0.49070   0.53680   0.17730
H          H       0.46440   0.52320   0.16610
C          C       0.53930   0.51760   0.21230
C          C       0.55220   0.60620   0.19040
N          N       0.60780   0.74920   0.17400
H          H       0.58690   0.78060   0.16310
H          H       0.62020   0.80770   0.18460
C          C       0.59190   0.66400   0.19450
C          C       0.60010   0.55300   0.24000
H          H       0.61720   0.53850   0.25830
O          O       0.41840   0.27310   0.20440
N          N       0.99950   0.52600   0.20420
N          N       0.88460   0.36710   0.22080
C          C       0.00930   0.46320   0.17730
H          H       0.03560   0.47680   0.16610
C          C       0.96070   0.48240   0.21230
C          C       0.94780   0.39380   0.19040
N          N       0.89220   0.25080   0.17400
H          H       0.91310   0.21940   0.16310
H          H       0.87980   0.19230   0.18460
C          C       0.90810   0.33600   0.19450
C          C       0.89990   0.44700   0.24000
H          H       0.88280   0.46150   0.25830
O          O       0.08160   0.72690   0.20440
O          O       0.89660   0.55110   0.31390
C          C       0.89570   0.66220   0.31390
C          C       0.86920   0.73640   0.33710
C          C       0.90570   0.91320   0.58290
C          C       0.94480   0.88550   0.60040
C          C       0.85940   0.85760   0.33280
H          H       0.87110   0.89990   0.31510
O          O       0.97830   0.95170   0.59670
C          C       0.86920   0.85950   0.58860
H          H       0.86770   0.79720   0.60430
C          C       0.81590   0.86920   0.37750
C          C       0.84950   0.67060   0.36150
H          H       0.85440   0.58420   0.36440
C          C       0.83340   0.92020   0.35270
H          H       0.82750   0.00540   0.34860
C          C       0.90530   0.00290   0.55990
H          H       0.93080   0.04980   0.55570
C          C       0.82190   0.73870   0.38170
H          H       0.80720   0.69720   0.39830
C          C       0.75000   0.00000   0.38150
H          H       0.75000   1.00000   0.35920
C          C       0.78540   0.94700   0.39770
C          C       0.83130   0.89140   0.57190
H          H       0.80470   0.86400   0.58090
C          C       0.82060   0.89420   0.44720
H          H       0.84430   0.85860   0.43620
C          C       0.78600   0.94600   0.43080
C          C       0.75030   0.99960   0.44700
C          C       0.75030   0.99960   0.47960
C          C       0.78560   0.94660   0.49600
C          C       0.82040   0.89450   0.47990
H          H       0.84400   0.85910   0.49110
C          C       0.86660   0.02570   0.54240
H          H       0.86570   0.09020   0.52720
C          C       0.82810   0.94740   0.54830
C          C       0.78520   0.94730   0.52920
C          C       0.75000   0.00000   0.54520
H          H       0.75000   0.00000   0.56750
O          O       0.60340   0.44890   0.31390
C          C       0.60430   0.33780   0.31390
C          C       0.63080   0.26360   0.33710
C          C       0.59430   0.08680   0.58290
C          C       0.55520   0.11450   0.60040
C          C       0.64060   0.14240   0.33280
H          H       0.62890   0.10010   0.31510
O          O       0.52170   0.04830   0.59670
C          C       0.63080   0.14050   0.58860
H          H       0.63230   0.20280   0.60430
C          C       0.68410   0.13080   0.37750
C          C       0.65050   0.32940   0.36150
H          H       0.64560   0.41580   0.36440
C          C       0.66660   0.07980   0.35270
H          H       0.67250   0.99460   0.34860
C          C       0.59470   0.99710   0.55990
H          H       0.56920   0.95020   0.55570
C          C       0.67810   0.26130   0.38170
H          H       0.69280   0.30280   0.39830
C          C       0.71460   0.05300   0.39770
C          C       0.66870   0.10860   0.57190
H          H       0.69530   0.13600   0.58090
C          C       0.67940   0.10580   0.44720
H          H       0.65570   0.14140   0.43620
C          C       0.71400   0.05400   0.43080
C          C       0.71440   0.05340   0.49600
C          C       0.67960   0.10550   0.47990
H          H       0.65600   0.14090   0.49110
C          C       0.63340   0.97430   0.54240
H          H       0.63430   0.90980   0.52720
C          C       0.67190   0.05260   0.54830
C          C       0.71480   0.05270   0.52920
O          O       0.10340   0.55110   0.18610
C          C       0.10430   0.66220   0.18610
C          C       0.13080   0.73640   0.16290
C          C       0.09430   0.91320   0.91710
C          C       0.05520   0.88550   0.89960
C          C       0.14060   0.85760   0.16720
H          H       0.12890   0.89990   0.18490
O          O       0.02170   0.95170   0.90330
C          C       0.13080   0.85950   0.91140
H          H       0.13230   0.79720   0.89570
C          C       0.18410   0.86920   0.12250
C          C       0.15050   0.67060   0.13850
H          H       0.14560   0.58420   0.13560
C          C       0.16660   0.92020   0.14730
H          H       0.17250   0.00540   0.15140
C          C       0.09470   0.00290   0.94010
H          H       0.06920   0.04980   0.94430
C          C       0.17810   0.73870   0.11830
H          H       0.19280   0.69720   0.10170
C          C       0.25000   0.00000   0.11850
H          H       0.25000   1.00000   0.14080
C          C       0.21460   0.94700   0.10230
C          C       0.16870   0.89140   0.92810
H          H       0.19530   0.86400   0.91910
C          C       0.17940   0.89420   0.05280
H          H       0.15570   0.85860   0.06380
C          C       0.21400   0.94600   0.06920
C          C       0.24970   0.99960   0.05300
C          C       0.24970   0.99960   0.02040
C          C       0.21440   0.94660   0.00390
C          C       0.17960   0.89450   0.02010
H          H       0.15600   0.85910   0.00890
C          C       0.13340   0.02570   0.95760
H          H       0.13430   0.09020   0.97280
C          C       0.17190   0.94740   0.95170
C          C       0.21480   0.94730   0.97080
C          C       0.25000   0.00000   0.95480
H          H       0.25000   0.00000   0.93250
O          O       0.39660   0.44890   0.18610
C          C       0.39570   0.33780   0.18610
C          C       0.36920   0.26360   0.16290
C          C       0.40570   0.08680   0.91710
C          C       0.44480   0.11450   0.89960
C          C       0.35940   0.14240   0.16720
H          H       0.37110   0.10010   0.18490
O          O       0.47830   0.04830   0.90330
C          C       0.36920   0.14050   0.91140
H          H       0.36770   0.20280   0.89570
C          C       0.31590   0.13080   0.12250
C          C       0.34950   0.32940   0.13850
H          H       0.35440   0.41580   0.13560
C          C       0.33340   0.07980   0.14730
H          H       0.32750   0.99460   0.15140
C          C       0.40530   0.99710   0.94010
H          H       0.43080   0.95020   0.94430
C          C       0.32190   0.26130   0.11830
H          H       0.30720   0.30280   0.10170
C          C       0.28540   0.05300   0.10230
C          C       0.33130   0.10860   0.92810
H          H       0.30470   0.13600   0.91910
C          C       0.32060   0.10580   0.05280
H          H       0.34430   0.14140   0.06380
C          C       0.28600   0.05400   0.06920
C          C       0.28560   0.05340   0.00390
C          C       0.32040   0.10550   0.02010
H          H       0.34400   0.14090   0.00890
C          C       0.36660   0.97430   0.95760
H          H       0.36570   0.90980   0.97280
C          C       0.32810   0.05260   0.95170
C          C       0.28520   0.05270   0.97080
N          N       0.02010   0.88230   0.66790
N          N       0.00050   0.02600   0.70420
N          N       0.11540   0.86710   0.72080
C          C       0.99070   0.96320   0.67730
H          H       0.96440   0.97680   0.66610
C          C       0.03930   0.98240   0.71230
C          C       0.05220   0.89380   0.69040
N          N       0.10780   0.75080   0.67400
H          H       0.08690   0.71940   0.66310
H          H       0.12020   0.69230   0.68460
C          C       0.09190   0.83600   0.69450
C          C       0.10010   0.94700   0.74000
H          H       0.11720   0.96150   0.75830
N          N       0.50050   0.52600   0.70420
N          N       0.61540   0.36710   0.72080
C          C       0.49070   0.46320   0.67730
H          H       0.46440   0.47680   0.66610
C          C       0.53930   0.48240   0.71230
C          C       0.55220   0.39380   0.69040
N          N       0.60780   0.25080   0.67400
H          H       0.58690   0.21940   0.66310
H          H       0.62020   0.19230   0.68460
C          C       0.59190   0.33600   0.69450
C          C       0.60010   0.44700   0.74000
H          H       0.61720   0.46150   0.75830
O          O       0.41840   0.72690   0.70440
C          C       0.75030   0.49960   0.55300
Zn         Zn      0.03940   0.36580   0.72830
N          N       0.97990   0.61770   0.66790
N          N       0.99950   0.47400   0.70420
N          N       0.93710   0.48590   0.73810
N          N       0.88460   0.63290   0.72080
C          C       0.00930   0.53680   0.67730
H          H       0.03560   0.52320   0.66610
C          C       0.96070   0.51760   0.71230
C          C       0.94780   0.60620   0.69040
N          N       0.89220   0.74920   0.67400
H          H       0.91310   0.78060   0.66310
H          H       0.87980   0.80770   0.68460
C          C       0.90810   0.66400   0.69450
C          C       0.89990   0.55300   0.74000
H          H       0.88280   0.53850   0.75830
Zn         Zn      0.00000   0.25000   0.13730
Zn         Zn      0.46060   0.86580   0.77170
Zn         Zn      0.96060   0.36580   0.77170
O          O       0.00000   0.25000   0.75000
O          O       0.50000   0.75000   0.75000
O          O       0.08160   0.27310   0.70440
N          N       0.02010   0.61770   0.83210
O          O       0.94570   0.80440   0.61880
O          O       0.05440   0.80440   0.88120
N          N       0.56290   0.98590   0.76190
N          N       0.06290   0.48590   0.76190
O          O       0.41840   0.77310   0.79560
N          N       0.52010   0.11770   0.83210
N          N       0.50050   0.97400   0.79580
N          N       0.61540   0.13290   0.77920
C          C       0.49070   0.03680   0.82270
H          H       0.46440   0.02320   0.83390
C          C       0.53930   0.01760   0.78770
O          O       0.39660   0.94890   0.81390
C          C       0.55220   0.10620   0.80960
N          N       0.60780   0.24920   0.82600
H          H       0.58690   0.28060   0.83690
H          H       0.62020   0.30770   0.81540
C          C       0.39570   0.83780   0.81390
C          C       0.59190   0.16400   0.80550
C          C       0.60010   0.05300   0.76000
H          H       0.61720   0.03850   0.74170
C          C       0.36920   0.76360   0.83710
C          C       0.40570   0.58680   0.08290
C          C       0.44480   0.61450   0.10040
C          C       0.35940   0.64240   0.83280
H          H       0.37110   0.60010   0.81510
O          O       0.47830   0.54830   0.09670
C          C       0.36920   0.64050   0.08860
H          H       0.36770   0.70280   0.10430
C          C       0.31590   0.63080   0.87750
C          C       0.34950   0.82940   0.86150
H          H       0.35440   0.91580   0.86440
C          C       0.33340   0.57980   0.85270
H          H       0.32750   0.49460   0.84860
C          C       0.40530   0.49710   0.05990
H          H       0.43080   0.45020   0.05570
C          C       0.32190   0.76130   0.88170
H          H       0.30720   0.80280   0.89830
C          C       0.25000   0.50000   0.88150
H          H       0.25000   0.50000   0.85920
C          C       0.28540   0.55300   0.89770
C          C       0.33130   0.60860   0.07190
H          H       0.30470   0.63600   0.08090
C          C       0.32060   0.60580   0.94720
H          H       0.34430   0.64140   0.93620
C          C       0.28600   0.55400   0.93080
C          C       0.25030   0.50040   0.94700
C          C       0.25030   0.50040   0.97960
C          C       0.28560   0.55340   0.99600
C          C       0.32040   0.60550   0.97990
H          H       0.34400   0.64090   0.99110
C          C       0.36660   0.47430   0.04240
H          H       0.36570   0.40980   0.02720
C          C       0.32810   0.55260   0.04830
C          C       0.28520   0.55270   0.02920
C          C       0.25000   0.50000   0.04520
H          H       0.25000   0.50000   0.06750
O          O       0.08160   0.22690   0.79560
O          O       0.05440   0.30440   0.11880
O          O       0.10340   0.05110   0.81390
C          C       0.10430   0.16220   0.81390
C          C       0.13080   0.23640   0.83710
C          C       0.09430   0.41320   0.08290
C          C       0.05520   0.38550   0.10040
C          C       0.14060   0.35760   0.83280
H          H       0.12890   0.39990   0.81510
O          O       0.02170   0.45170   0.09670
C          C       0.13080   0.35950   0.08860
H          H       0.13230   0.29720   0.10430
C          C       0.18410   0.36920   0.87750
C          C       0.15050   0.17060   0.86150
H          H       0.14560   0.08420   0.86440
C          C       0.16660   0.42020   0.85270
H          H       0.17250   0.50540   0.84860
C          C       0.09470   0.50290   0.05990
H          H       0.06920   0.54980   0.05570
C          C       0.17810   0.23870   0.88170
H          H       0.19280   0.19720   0.89830
C          C       0.21460   0.44700   0.89770
C          C       0.16870   0.39140   0.07190
H          H       0.19530   0.36400   0.08090
C          C       0.17940   0.39420   0.94720
H          H       0.15570   0.35860   0.93620
C          C       0.21400   0.44600   0.93080
C          C       0.21440   0.44660   0.99600
C          C       0.17960   0.39450   0.97990
H          H       0.15600   0.35910   0.99110
C          C       0.13340   0.52570   0.04240
H          H       0.13430   0.59020   0.02720
C          C       0.17190   0.44740   0.04830
C          C       0.21480   0.44730   0.02920
Zn         Zn      0.03940   0.13420   0.77170
N          N       0.97990   0.88230   0.83210
N          N       0.99950   0.02600   0.79580
N          N       0.93710   0.01410   0.76190
N          N       0.88460   0.86710   0.77920
C          C       0.00930   0.96320   0.82270
H          H       0.03560   0.97680   0.83390
C          C       0.96070   0.98240   0.78770
C          C       0.94780   0.89380   0.80960
N          N       0.89220   0.75080   0.82600
H          H       0.91310   0.71940   0.83690
H          H       0.87980   0.69230   0.81540
C          C       0.90810   0.83600   0.80550
C          C       0.89990   0.94700   0.76000
H          H       0.88280   0.96150   0.74170
Zn         Zn      0.53940   0.86580   0.72830
O          O       0.58160   0.77310   0.70440
N          N       0.47990   0.11770   0.66790
N          N       0.49950   0.97400   0.70420
N          N       0.43710   0.98590   0.73810
N          N       0.38460   0.13290   0.72080
C          C       0.50930   0.03680   0.67730
H          H       0.53560   0.02320   0.66610
C          C       0.46070   0.01760   0.71230
O          O       0.60340   0.94890   0.68610
C          C       0.44780   0.10620   0.69040
N          N       0.39220   0.24920   0.67400
H          H       0.41310   0.28060   0.66310
H          H       0.37980   0.30770   0.68460
C          C       0.60430   0.83780   0.68610
C          C       0.40810   0.16400   0.69450
C          C       0.39990   0.05300   0.74000
H          H       0.38280   0.03850   0.75830
C          C       0.63080   0.76360   0.66290
C          C       0.59430   0.58680   0.41710
C          C       0.55520   0.61450   0.39960
C          C       0.64060   0.64240   0.66720
H          H       0.62890   0.60010   0.68490
O          O       0.52170   0.54830   0.40330
C          C       0.63080   0.64050   0.41140
H          H       0.63230   0.70280   0.39570
C          C       0.68410   0.63080   0.62250
C          C       0.65050   0.82940   0.63850
H          H       0.64560   0.91580   0.63560
C          C       0.66660   0.57980   0.64730
H          H       0.67250   0.49460   0.65140
C          C       0.59470   0.49710   0.44010
H          H       0.56920   0.45020   0.44430
C          C       0.67810   0.76130   0.61830
H          H       0.69280   0.80280   0.60170
C          C       0.75000   0.50000   0.61850
H          H       0.75000   0.50000   0.64080
C          C       0.71460   0.55300   0.60230
C          C       0.66870   0.60860   0.42810
H          H       0.69530   0.63600   0.41910
C          C       0.67940   0.60580   0.55280
H          H       0.65570   0.64140   0.56380
C          C       0.71400   0.55400   0.56920
C          C       0.74970   0.50040   0.52040
C          C       0.71440   0.55340   0.50400
C          C       0.67960   0.60550   0.52010
H          H       0.65600   0.64090   0.50890
C          C       0.63340   0.47430   0.45760
H          H       0.63430   0.40980   0.47280
C          C       0.67190   0.55260   0.45170
C          C       0.71480   0.55270   0.47080
C          C       0.75000   0.50000   0.45480
H          H       0.75000   0.50000   0.43250
O          O       0.91840   0.22690   0.70440
O          O       0.94570   0.30440   0.38120
O          O       0.89660   0.05110   0.68610
C          C       0.89570   0.16220   0.68610
C          C       0.86920   0.23640   0.66290
C          C       0.90570   0.41320   0.41710
C          C       0.94480   0.38550   0.39960
C          C       0.85940   0.35760   0.66720
H          H       0.87110   0.39990   0.68490
O          O       0.97830   0.45170   0.40330
C          C       0.86920   0.35950   0.41140
H          H       0.86770   0.29720   0.39570
C          C       0.81590   0.36920   0.62250
C          C       0.84950   0.17060   0.63850
H          H       0.85440   0.08420   0.63560
C          C       0.83340   0.42020   0.64730
H          H       0.82750   0.50540   0.65140
C          C       0.90530   0.50290   0.44010
H          H       0.93080   0.54980   0.44430
C          C       0.82190   0.23870   0.61830
H          H       0.80720   0.19720   0.60170
C          C       0.78540   0.44700   0.60230
C          C       0.83130   0.39140   0.42810
H          H       0.80470   0.36400   0.41910
C          C       0.82060   0.39420   0.55280
H          H       0.84430   0.35860   0.56380
C          C       0.78600   0.44600   0.56920
C          C       0.78560   0.44660   0.50400
C          C       0.82040   0.39450   0.52010
H          H       0.84400   0.35910   0.50890
C          C       0.86660   0.52570   0.45760
H          H       0.86570   0.59020   0.47280
C          C       0.82810   0.44740   0.45170
C          C       0.78520   0.44730   0.47080
Zn         Zn      0.53940   0.63420   0.77170
N          N       0.47990   0.38230   0.83210
N          N       0.49950   0.52600   0.79580
N          N       0.43710   0.51410   0.76190
N          N       0.38460   0.36710   0.77920
C          C       0.50930   0.46320   0.82270
H          H       0.53560   0.47680   0.83390
C          C       0.46070   0.48240   0.78770
C          C       0.44780   0.39380   0.80960
N          N       0.39220   0.25080   0.82600
H          H       0.41310   0.21940   0.83690
H          H       0.37980   0.19230   0.81540
C          C       0.40810   0.33600   0.80550
C          C       0.39990   0.44700   0.76000
H          H       0.38280   0.46150   0.74170
Zn         Zn      0.96060   0.13420   0.72830
Zn         Zn      0.46060   0.63420   0.72830
O          O       0.58160   0.72690   0.79560
N          N       0.52010   0.38230   0.66790
O          O       0.44570   0.19560   0.88120
O          O       0.55440   0.19560   0.61880
N          N       0.06290   0.01410   0.73810
N          N       0.56290   0.51410   0.73810
N          N       0.00050   0.47400   0.79580
N          N       0.11540   0.63290   0.77920
C          C       0.99070   0.53680   0.82270
H          H       0.96440   0.52320   0.83390
C          C       0.03930   0.51760   0.78770
C          C       0.05220   0.60620   0.80960
N          N       0.10780   0.74920   0.82600
H          H       0.08690   0.78060   0.83690
H          H       0.12020   0.80770   0.81540
C          C       0.09190   0.66400   0.80550
C          C       0.10010   0.55300   0.76000
H          H       0.11720   0.53850   0.74170
O          O       0.91840   0.27310   0.79560
O          O       0.10340   0.44890   0.68610
C          C       0.10430   0.33780   0.68610
C          C       0.13080   0.26360   0.66290
C          C       0.09430   0.08680   0.41710
C          C       0.05520   0.11450   0.39960
C          C       0.14060   0.14240   0.66720
H          H       0.12890   0.10010   0.68490
O          O       0.02170   0.04830   0.40330
C          C       0.13080   0.14050   0.41140
H          H       0.13230   0.20280   0.39570
C          C       0.18410   0.13080   0.62250
C          C       0.15050   0.32940   0.63850
H          H       0.14560   0.41580   0.63560
C          C       0.16660   0.07980   0.64730
H          H       0.17250   0.99460   0.65140
C          C       0.09470   0.99710   0.44010
H          H       0.06920   0.95020   0.44430
C          C       0.17810   0.26130   0.61830
H          H       0.19280   0.30280   0.60170
C          C       0.25000   0.00000   0.61850
H          H       0.25000   0.00000   0.64080
C          C       0.21460   0.05300   0.60230
C          C       0.16870   0.10860   0.42810
H          H       0.19530   0.13600   0.41910
C          C       0.17940   0.10580   0.55280
H          H       0.15570   0.14140   0.56380
C          C       0.21400   0.05400   0.56920
C          C       0.24970   0.00040   0.55300
C          C       0.24970   0.00040   0.52040
C          C       0.21440   0.05340   0.50400
C          C       0.17960   0.10550   0.52010
H          H       0.15600   0.14090   0.50890
C          C       0.13340   0.97430   0.45760
H          H       0.13430   0.90980   0.47280
C          C       0.17190   0.05260   0.45170
C          C       0.21480   0.05270   0.47080
C          C       0.25000   0.00000   0.45480
H          H       0.25000   0.00000   0.43250
O          O       0.39660   0.55110   0.68610
C          C       0.39570   0.66220   0.68610
C          C       0.36920   0.73640   0.66290
C          C       0.40570   0.91320   0.41710
C          C       0.44480   0.88550   0.39960
C          C       0.35940   0.85760   0.66720
H          H       0.37110   0.89990   0.68490
O          O       0.47830   0.95170   0.40330
C          C       0.36920   0.85950   0.41140
H          H       0.36770   0.79720   0.39570
C          C       0.31590   0.86920   0.62250
C          C       0.34950   0.67060   0.63850
H          H       0.35440   0.58420   0.63560
C          C       0.33340   0.92020   0.64730
H          H       0.32750   0.00540   0.65140
C          C       0.40530   0.00290   0.44010
H          H       0.43080   0.04980   0.44430
C          C       0.32190   0.73870   0.61830
H          H       0.30720   0.69720   0.60170
C          C       0.28540   0.94700   0.60230
C          C       0.33130   0.89140   0.42810
H          H       0.30470   0.86400   0.41910
C          C       0.32060   0.89420   0.55280
H          H       0.34430   0.85860   0.56380
C          C       0.28600   0.94600   0.56920
C          C       0.28560   0.94660   0.50400
C          C       0.32040   0.89450   0.52010
H          H       0.34400   0.85910   0.50890
C          C       0.36660   0.02570   0.45760
H          H       0.36570   0.09020   0.47280
C          C       0.32810   0.94740   0.45170
C          C       0.28520   0.94730   0.47080
O          O       0.89660   0.44890   0.81390
C          C       0.89570   0.33780   0.81390
C          C       0.86920   0.26360   0.83710
C          C       0.90570   0.08680   0.08290
C          C       0.94480   0.11450   0.10040
C          C       0.85940   0.14240   0.83280
H          H       0.87110   0.10010   0.81510
O          O       0.97830   0.04830   0.09670
C          C       0.86920   0.14050   0.08860
H          H       0.86770   0.20280   0.10430
C          C       0.81590   0.13080   0.87750
C          C       0.84950   0.32940   0.86150
H          H       0.85440   0.41580   0.86440
C          C       0.83340   0.07980   0.85270
H          H       0.82750   0.99460   0.84860
C          C       0.90530   0.99710   0.05990
H          H       0.93080   0.95020   0.05570
C          C       0.82190   0.26130   0.88170
H          H       0.80720   0.30280   0.89830
C          C       0.75000   0.00000   0.88150
H          H       0.75000   0.00000   0.85920
C          C       0.78540   0.05300   0.89770
C          C       0.83130   0.10860   0.07190
H          H       0.80470   0.13600   0.08090
C          C       0.82060   0.10580   0.94720
H          H       0.84430   0.14140   0.93620
C          C       0.78600   0.05400   0.93080
C          C       0.75030   0.00040   0.94700
C          C       0.75030   0.00040   0.97960
C          C       0.78560   0.05340   0.99600
C          C       0.82040   0.10550   0.97990
H          H       0.84400   0.14090   0.99110
C          C       0.86660   0.97430   0.04240
H          H       0.86570   0.90980   0.02720
C          C       0.82810   0.05260   0.04830
C          C       0.78520   0.05270   0.02920
C          C       0.75000   0.00000   0.04520
H          H       0.75000   0.00000   0.06750
O          O       0.60340   0.55110   0.81390
C          C       0.60430   0.66220   0.81390
C          C       0.63080   0.73640   0.83710
C          C       0.59430   0.91320   0.08290
C          C       0.55520   0.88550   0.10040
C          C       0.64060   0.85760   0.83280
H          H       0.62890   0.89990   0.81510
O          O       0.52170   0.95170   0.09670
C          C       0.63080   0.85950   0.08860
H          H       0.63230   0.79720   0.10430
C          C       0.68410   0.86920   0.87750
C          C       0.65050   0.67060   0.86150
H          H       0.64560   0.58420   0.86440
C          C       0.66660   0.92020   0.85270
H          H       0.67250   0.00540   0.84860
C          C       0.59470   0.00290   0.05990
H          H       0.56920   0.04980   0.05570
C          C       0.67810   0.73870   0.88170
H          H       0.69280   0.69720   0.89830
C          C       0.71460   0.94700   0.89770
C          C       0.66870   0.89140   0.07190
H          H       0.69530   0.86400   0.08090
C          C       0.67940   0.89420   0.94720
H          H       0.65570   0.85860   0.93620
C          C       0.71400   0.94600   0.93080
C          C       0.71440   0.94660   0.99600
C          C       0.67960   0.89450   0.97990
H          H       0.65600   0.85910   0.99110
C          C       0.63340   0.02570   0.04240
H          H       0.63430   0.09020   0.02720
C          C       0.67190   0.94740   0.04830
C          C       0.71480   0.94730   0.02920
